<?xml version="1.0" encoding="UTF-8"?>

<routes>

	
    <vType id="conventional" vClass="passenger" sigma="1" maxSpeed="40.0" color="red" accel="10.0"/>
    <vType id="connected" vClass="passenger" tau="1.3" maxSpeed="28.00" lcCooperative="0.0" color="1,1,0" lcStrategic="1.0" accel="3.0" decel="1.5" emergencyDecel="4.5" lcSpeedGain="0.3" sigma="0.0" lcKeepRight="0.3"/>
    <vType id="connected_pCatchupFollower" vClass="passenger" emergencyDecel="4.5" length="5" tau="0.1" maxSpeed="28.00" color="1,1,0" accel="10.3" decel="1.7" sigma="0.0" minGap="2.0"/>
    <vType id="connected_pCatchup" vClass="passenger" tau="0.1" emergencyDecel="4.5" maxSpeed="28.00" color="0,0.8,0.3" accel="10.3" decel="1.7" sigma="0.0" minGap="2.0"/>
    <vType id="connected_pFollower" vClass="passenger" tau="0.1" maxSpeed="28.00" color="1,1,0" accel="10.3" decel="1.7" sigma="0.0"  minGap="2.0" emergencyDecel="4.5"/>
    <vType id="connected_pLeader" vClass="passenger" length="5" tau="1.3" maxSpeed="28.00" lcCooperative="0.0" color="1,1,0" lcStrategic="1.0" accel="2.0" decel="1.5" emergencyDecel="4.5" lcSpeedGain="0.3" sigma="0.0" lcKeepRight="0.3"/>
    


	
    <trip id="start1Toend5_0" type="connected" color="1,1,0" from="start1" to="end5" depart="0.000000" />
    <trip id="start1Toend13_0" type="connected" color="1,1,0" from="start1" to="end13" depart="0.000000" />
    <trip id="start1Toend2_0" type="connected" color="1,1,0" from="start1" to="end2" depart="0.000000" />
    <trip id="start4Toend7_0" type="connected" color="1,1,0" from="start4" to="end7" depart="0.000000" />
    <trip id="start4Toend10_0" type="connected" color="1,1,0" from="start4" to="end10" depart="0.000000" />
    <trip id="start4Toend6_0" type="connected" color="1,1,0" from="start4" to="end6" depart="0.000000" />
    <trip id="start5Toend7_0" type="connected" color="1,1,0" from="start5" to="end7" depart="0.000000" />
    <trip id="start8Toend9_0" type="connected" color="1,1,0" from="start8" to="end9" depart="0.000000" />
    <trip id="start8Toend13_0" type="connected" color="1,1,0" from="start8" to="end13" depart="0.000000" />
    <trip id="start12Toend13_0" type="connected" color="1,1,0" from="start12" to="end13" depart="0.000000" />
    <trip id="start1Toend2_1" type="connected" color="1,1,0" from="start1" to="end2" depart="2.604032" />
    <trip id="start1Toend13_1" type="connected" color="1,1,0" from="start1" to="end13" depart="4.118359" />
    <trip id="start12Toend13_1" type="connected" color="1,1,0" from="start12" to="end13" depart="4.237013" />
    <trip id="start5Toend7_1" type="connected" color="1,1,0" from="start5" to="end7" depart="8.528448" />
    <trip id="start4Toend6_1" type="connected" color="1,1,0" from="start4" to="end6" depart="9.012767" />
    <trip id="start1Toend13_2" type="connected" color="1,1,0" from="start1" to="end13" depart="12.488983" />
    <trip id="start12Toend13_2" type="connected" color="1,1,0" from="start12" to="end13" depart="17.390921" />
    <trip id="start4Toend7_1" type="connected" color="1,1,0" from="start4" to="end7" depart="20.624516" />
    <trip id="start1Toend2_2" type="connected" color="1,1,0" from="start1" to="end2" depart="25.525761" />
    <trip id="start8Toend9_1" type="connected" color="1,1,0" from="start8" to="end9" depart="26.859206" />
    <trip id="start4Toend7_2" type="connected" color="1,1,0" from="start4" to="end7" depart="27.389859" />
    <trip id="start1Toend5_1" type="connected" color="1,1,0" from="start1" to="end5" depart="31.090881" />
    <trip id="start4Toend10_1" type="connected" color="1,1,0" from="start4" to="end10" depart="33.737268" />
    <trip id="start4Toend10_2" type="connected" color="1,1,0" from="start4" to="end10" depart="33.861602" />
    <trip id="start1Toend5_2" type="connected" color="1,1,0" from="start1" to="end5" depart="34.542655" />
    <trip id="start4Toend6_2" type="connected" color="1,1,0" from="start4" to="end6" depart="35.050350" />
    <trip id="start1Toend2_3" type="connected" color="1,1,0" from="start1" to="end2" depart="42.044078" />
    <trip id="start4Toend7_3" type="connected" color="1,1,0" from="start4" to="end7" depart="47.761162" />
    <trip id="start1Toend2_4" type="connected" color="1,1,0" from="start1" to="end2" depart="48.255037" />
    <trip id="start8Toend9_2" type="connected" color="1,1,0" from="start8" to="end9" depart="49.567717" />
    <trip id="start4Toend7_4" type="connected" color="1,1,0" from="start4" to="end7" depart="53.068487" />
    <trip id="start12Toend13_3" type="connected" color="1,1,0" from="start12" to="end13" depart="53.792534" />
    <trip id="start12Toend13_4" type="connected" color="1,1,0" from="start12" to="end13" depart="54.428399" />
    <trip id="start8Toend9_3" type="connected" color="1,1,0" from="start8" to="end9" depart="55.387631" />
    <trip id="start4Toend7_5" type="connected" color="1,1,0" from="start4" to="end7" depart="56.348418" />
    <trip id="start4Toend6_3" type="connected" color="1,1,0" from="start4" to="end6" depart="56.659331" />
    <trip id="start1Toend2_5" type="connected" color="1,1,0" from="start1" to="end2" depart="62.797703" />
    <trip id="start8Toend9_4" type="connected" color="1,1,0" from="start8" to="end9" depart="64.097007" />
    <trip id="start12Toend13_5" type="connected" color="1,1,0" from="start12" to="end13" depart="65.259722" />
    <trip id="start12Toend13_6" type="connected" color="1,1,0" from="start12" to="end13" depart="65.828145" />
    <trip id="start5Toend7_2" type="connected" color="1,1,0" from="start5" to="end7" depart="67.176306" />
    <trip id="start1Toend5_3" type="connected" color="1,1,0" from="start1" to="end5" depart="70.367924" />
    <trip id="start4Toend7_6" type="connected" color="1,1,0" from="start4" to="end7" depart="74.636405" />
    <trip id="start4Toend6_4" type="connected" color="1,1,0" from="start4" to="end6" depart="74.893886" />
    <trip id="start1Toend13_3" type="connected" color="1,1,0" from="start1" to="end13" depart="83.736268" />
    <trip id="start4Toend7_7" type="connected" color="1,1,0" from="start4" to="end7" depart="84.159649" />
    <trip id="start4Toend10_3" type="connected" color="1,1,0" from="start4" to="end10" depart="95.088793" />
    <trip id="start12Toend13_7" type="connected" color="1,1,0" from="start12" to="end13" depart="101.715923" />
    <trip id="start1Toend5_4" type="connected" color="1,1,0" from="start1" to="end5" depart="109.794317" />
    <trip id="start8Toend9_5" type="connected" color="1,1,0" from="start8" to="end9" depart="109.864902" />
    <trip id="start4Toend10_4" type="connected" color="1,1,0" from="start4" to="end10" depart="114.845461" />
    <trip id="start1Toend13_4" type="connected" color="1,1,0" from="start1" to="end13" depart="115.044964" />
    <trip id="start1Toend13_5" type="connected" color="1,1,0" from="start1" to="end13" depart="117.696131" />
    <trip id="start1Toend5_5" type="connected" color="1,1,0" from="start1" to="end5" depart="118.300652" />
    <trip id="start4Toend6_5" type="connected" color="1,1,0" from="start4" to="end6" depart="122.606968" />
    <trip id="start4Toend7_8" type="connected" color="1,1,0" from="start4" to="end7" depart="123.600771" />
    <trip id="start5Toend7_3" type="connected" color="1,1,0" from="start5" to="end7" depart="124.561508" />
    <trip id="start1Toend5_6" type="connected" color="1,1,0" from="start1" to="end5" depart="125.025600" />
    <trip id="start1Toend5_7" type="connected" color="1,1,0" from="start1" to="end5" depart="126.212475" />
    <trip id="start1Toend13_6" type="connected" color="1,1,0" from="start1" to="end13" depart="127.322489" />
    <trip id="start1Toend2_6" type="connected" color="1,1,0" from="start1" to="end2" depart="129.902172" />
    <trip id="start8Toend13_1" type="connected" color="1,1,0" from="start8" to="end13" depart="131.394822" />
    <trip id="start4Toend7_9" type="connected" color="1,1,0" from="start4" to="end7" depart="137.769597" />
    <trip id="start4Toend6_6" type="connected" color="1,1,0" from="start4" to="end6" depart="139.222018" />
    <trip id="start5Toend7_4" type="connected" color="1,1,0" from="start5" to="end7" depart="140.597988" />
    <trip id="start4Toend6_7" type="connected" color="1,1,0" from="start4" to="end6" depart="143.652910" />
    <trip id="start1Toend5_8" type="connected" color="1,1,0" from="start1" to="end5" depart="144.980835" />
    <trip id="start4Toend6_8" type="connected" color="1,1,0" from="start4" to="end6" depart="150.212993" />
    <trip id="start4Toend6_9" type="connected" color="1,1,0" from="start4" to="end6" depart="152.158171" />
    <trip id="start12Toend13_8" type="connected" color="1,1,0" from="start12" to="end13" depart="152.661935" />
    <trip id="start5Toend7_5" type="connected" color="1,1,0" from="start5" to="end7" depart="153.602052" />
    <trip id="start1Toend5_9" type="connected" color="1,1,0" from="start1" to="end5" depart="154.143924" />
    <trip id="start8Toend9_6" type="connected" color="1,1,0" from="start8" to="end9" depart="155.042975" />
    <trip id="start8Toend13_2" type="connected" color="1,1,0" from="start8" to="end13" depart="161.164509" />
    <trip id="start8Toend9_7" type="connected" color="1,1,0" from="start8" to="end9" depart="161.717438" />
    <trip id="start4Toend10_5" type="connected" color="1,1,0" from="start4" to="end10" depart="161.940669" />
    <trip id="start5Toend7_6" type="connected" color="1,1,0" from="start5" to="end7" depart="168.230806" />
    <trip id="start12Toend13_9" type="connected" color="1,1,0" from="start12" to="end13" depart="168.345424" />
    <trip id="start4Toend6_10" type="connected" color="1,1,0" from="start4" to="end6" depart="171.720712" />
    <trip id="start1Toend2_7" type="connected" color="1,1,0" from="start1" to="end2" depart="172.010035" />
    <trip id="start4Toend7_10" type="connected" color="1,1,0" from="start4" to="end7" depart="174.339935" />
    <trip id="start4Toend7_11" type="connected" color="1,1,0" from="start4" to="end7" depart="174.950394" />
    <trip id="start5Toend7_7" type="connected" color="1,1,0" from="start5" to="end7" depart="180.158051" />
    <trip id="start5Toend7_8" type="connected" color="1,1,0" from="start5" to="end7" depart="184.062050" />
    <trip id="start1Toend5_10" type="connected" color="1,1,0" from="start1" to="end5" depart="184.616202" />
    <trip id="start12Toend13_10" type="connected" color="1,1,0" from="start12" to="end13" depart="188.043917" />
    <trip id="start8Toend13_3" type="connected" color="1,1,0" from="start8" to="end13" depart="189.393624" />
    <trip id="start1Toend13_7" type="connected" color="1,1,0" from="start1" to="end13" depart="189.417933" />
    <trip id="start1Toend5_11" type="connected" color="1,1,0" from="start1" to="end5" depart="192.469135" />
    <trip id="start8Toend9_8" type="connected" color="1,1,0" from="start8" to="end9" depart="196.637328" />
    <trip id="start1Toend13_8" type="connected" color="1,1,0" from="start1" to="end13" depart="196.904282" />
    <trip id="start8Toend13_4" type="connected" color="1,1,0" from="start8" to="end13" depart="197.739933" />
    <trip id="start4Toend10_6" type="connected" color="1,1,0" from="start4" to="end10" depart="202.457721" />
    <trip id="start1Toend5_12" type="connected" color="1,1,0" from="start1" to="end5" depart="203.345403" />
    <trip id="start1Toend13_9" type="connected" color="1,1,0" from="start1" to="end13" depart="204.536424" />
    <trip id="start8Toend13_5" type="connected" color="1,1,0" from="start8" to="end13" depart="207.910939" />
    <trip id="start1Toend13_10" type="connected" color="1,1,0" from="start1" to="end13" depart="207.933256" />
    <trip id="start1Toend13_11" type="connected" color="1,1,0" from="start1" to="end13" depart="208.201355" />
    <trip id="start5Toend7_9" type="connected" color="1,1,0" from="start5" to="end7" depart="209.117445" />
    <trip id="start4Toend10_7" type="connected" color="1,1,0" from="start4" to="end10" depart="211.504382" />
    <trip id="start8Toend13_6" type="connected" color="1,1,0" from="start8" to="end13" depart="215.586902" />
    <trip id="start4Toend10_8" type="connected" color="1,1,0" from="start4" to="end10" depart="222.074024" />
    <trip id="start12Toend13_11" type="connected" color="1,1,0" from="start12" to="end13" depart="224.561395" />
    <trip id="start8Toend9_9" type="connected" color="1,1,0" from="start8" to="end9" depart="231.885952" />
    <trip id="start12Toend13_12" type="connected" color="1,1,0" from="start12" to="end13" depart="235.005894" />
    <trip id="start8Toend13_7" type="connected" color="1,1,0" from="start8" to="end13" depart="236.220903" />
    <trip id="start4Toend7_12" type="connected" color="1,1,0" from="start4" to="end7" depart="243.508294" />
    <trip id="start4Toend10_9" type="connected" color="1,1,0" from="start4" to="end10" depart="247.494094" />
    <trip id="start8Toend9_10" type="connected" color="1,1,0" from="start8" to="end9" depart="250.919184" />
    <trip id="start5Toend7_10" type="connected" color="1,1,0" from="start5" to="end7" depart="253.449576" />
    <trip id="start4Toend7_13" type="connected" color="1,1,0" from="start4" to="end7" depart="256.606671" />
    <trip id="start12Toend13_13" type="connected" color="1,1,0" from="start12" to="end13" depart="257.616804" />
    <trip id="start4Toend7_14" type="connected" color="1,1,0" from="start4" to="end7" depart="257.986422" />
    <trip id="start4Toend10_10" type="connected" color="1,1,0" from="start4" to="end10" depart="259.160828" />
    <trip id="start1Toend2_8" type="connected" color="1,1,0" from="start1" to="end2" depart="260.259422" />
    <trip id="start1Toend2_9" type="connected" color="1,1,0" from="start1" to="end2" depart="265.218269" />
    <trip id="start8Toend13_8" type="connected" color="1,1,0" from="start8" to="end13" depart="269.384649" />
    <trip id="start8Toend13_9" type="connected" color="1,1,0" from="start8" to="end13" depart="269.532413" />
    <trip id="start1Toend2_10" type="connected" color="1,1,0" from="start1" to="end2" depart="271.143645" />
    <trip id="start12Toend13_14" type="connected" color="1,1,0" from="start12" to="end13" depart="275.123085" />
    <trip id="start5Toend7_11" type="connected" color="1,1,0" from="start5" to="end7" depart="275.734490" />
    <trip id="start1Toend2_11" type="connected" color="1,1,0" from="start1" to="end2" depart="276.046548" />
    <trip id="start1Toend13_12" type="connected" color="1,1,0" from="start1" to="end13" depart="276.323315" />
    <trip id="start8Toend13_10" type="connected" color="1,1,0" from="start8" to="end13" depart="278.569612" />
    <trip id="start8Toend9_11" type="connected" color="1,1,0" from="start8" to="end9" depart="278.837643" />
    <trip id="start1Toend2_12" type="connected" color="1,1,0" from="start1" to="end2" depart="281.054514" />
    <trip id="start5Toend7_12" type="connected" color="1,1,0" from="start5" to="end7" depart="286.195512" />
    <trip id="start4Toend7_15" type="connected" color="1,1,0" from="start4" to="end7" depart="288.945652" />
    <trip id="start1Toend2_13" type="connected" color="1,1,0" from="start1" to="end2" depart="290.250440" />
    <trip id="start4Toend6_11" type="connected" color="1,1,0" from="start4" to="end6" depart="296.596020" />
    <trip id="start4Toend7_16" type="connected" color="1,1,0" from="start4" to="end7" depart="296.890287" />
    <trip id="start4Toend10_11" type="connected" color="1,1,0" from="start4" to="end10" depart="297.490210" />
    <trip id="start8Toend9_12" type="connected" color="1,1,0" from="start8" to="end9" depart="299.321684" />
    <trip id="start8Toend13_11" type="connected" color="1,1,0" from="start8" to="end13" depart="301.590778" />
    <trip id="start12Toend13_15" type="connected" color="1,1,0" from="start12" to="end13" depart="302.165494" />
    <trip id="start8Toend9_13" type="connected" color="1,1,0" from="start8" to="end9" depart="302.206519" />
    <trip id="start12Toend13_16" type="connected" color="1,1,0" from="start12" to="end13" depart="307.773431" />
    <trip id="start4Toend10_12" type="connected" color="1,1,0" from="start4" to="end10" depart="312.300088" />
    <trip id="start12Toend13_17" type="connected" color="1,1,0" from="start12" to="end13" depart="314.796049" />
    <trip id="start4Toend7_17" type="connected" color="1,1,0" from="start4" to="end7" depart="316.353633" />
    <trip id="start4Toend6_12" type="connected" color="1,1,0" from="start4" to="end6" depart="316.416346" />
    <trip id="start1Toend5_13" type="connected" color="1,1,0" from="start1" to="end5" depart="319.289796" />
    <trip id="start4Toend10_13" type="connected" color="1,1,0" from="start4" to="end10" depart="320.882255" />
    <trip id="start8Toend13_12" type="connected" color="1,1,0" from="start8" to="end13" depart="322.718786" />
    <trip id="start12Toend13_18" type="connected" color="1,1,0" from="start12" to="end13" depart="329.288849" />
    <trip id="start5Toend7_13" type="connected" color="1,1,0" from="start5" to="end7" depart="333.888754" />
    <trip id="start1Toend2_14" type="connected" color="1,1,0" from="start1" to="end2" depart="335.249434" />
    <trip id="start4Toend7_18" type="connected" color="1,1,0" from="start4" to="end7" depart="338.816099" />
    <trip id="start12Toend13_19" type="connected" color="1,1,0" from="start12" to="end13" depart="341.682374" />
    <trip id="start8Toend13_13" type="connected" color="1,1,0" from="start8" to="end13" depart="342.453943" />
    <trip id="start12Toend13_20" type="connected" color="1,1,0" from="start12" to="end13" depart="345.149697" />
    <trip id="start4Toend10_14" type="connected" color="1,1,0" from="start4" to="end10" depart="346.746493" />
    <trip id="start5Toend7_14" type="connected" color="1,1,0" from="start5" to="end7" depart="347.518478" />
    <trip id="start1Toend5_14" type="connected" color="1,1,0" from="start1" to="end5" depart="349.702912" />
    <trip id="start4Toend10_15" type="connected" color="1,1,0" from="start4" to="end10" depart="354.356677" />
    <trip id="start1Toend2_15" type="connected" color="1,1,0" from="start1" to="end2" depart="355.664828" />
    <trip id="start1Toend13_13" type="connected" color="1,1,0" from="start1" to="end13" depart="356.559633" />
    <trip id="start1Toend2_16" type="connected" color="1,1,0" from="start1" to="end2" depart="360.557902" />
    <trip id="start1Toend5_15" type="connected" color="1,1,0" from="start1" to="end5" depart="363.858651" />
    <trip id="start8Toend9_14" type="connected" color="1,1,0" from="start8" to="end9" depart="363.970913" />
    <trip id="start8Toend9_15" type="connected" color="1,1,0" from="start8" to="end9" depart="364.957609" />
    <trip id="start4Toend10_16" type="connected" color="1,1,0" from="start4" to="end10" depart="366.341020" />
    <trip id="start5Toend7_15" type="connected" color="1,1,0" from="start5" to="end7" depart="368.040165" />
    <trip id="start8Toend13_14" type="connected" color="1,1,0" from="start8" to="end13" depart="370.775754" />
    <trip id="start4Toend10_17" type="connected" color="1,1,0" from="start4" to="end10" depart="372.406588" />
    <trip id="start1Toend2_17" type="connected" color="1,1,0" from="start1" to="end2" depart="373.110138" />
    <trip id="start1Toend2_18" type="connected" color="1,1,0" from="start1" to="end2" depart="373.889879" />
    <trip id="start8Toend9_16" type="connected" color="1,1,0" from="start8" to="end9" depart="376.876109" />
    <trip id="start4Toend6_13" type="connected" color="1,1,0" from="start4" to="end6" depart="379.206402" />
    <trip id="start1Toend5_16" type="connected" color="1,1,0" from="start1" to="end5" depart="383.842551" />
    <trip id="start12Toend13_21" type="connected" color="1,1,0" from="start12" to="end13" depart="390.816552" />
    <trip id="start4Toend7_19" type="connected" color="1,1,0" from="start4" to="end7" depart="391.458987" />
    <trip id="start8Toend13_15" type="connected" color="1,1,0" from="start8" to="end13" depart="392.577187" />
    <trip id="start1Toend13_14" type="connected" color="1,1,0" from="start1" to="end13" depart="394.470788" />
    <trip id="start4Toend6_14" type="connected" color="1,1,0" from="start4" to="end6" depart="401.253011" />
    <trip id="start12Toend13_22" type="connected" color="1,1,0" from="start12" to="end13" depart="403.444528" />
    <trip id="start4Toend10_18" type="connected" color="1,1,0" from="start4" to="end10" depart="405.004110" />
    <trip id="start8Toend9_17" type="connected" color="1,1,0" from="start8" to="end9" depart="408.911927" />
    <trip id="start1Toend2_19" type="connected" color="1,1,0" from="start1" to="end2" depart="411.294835" />
    <trip id="start4Toend6_15" type="connected" color="1,1,0" from="start4" to="end6" depart="411.737867" />
    <trip id="start1Toend2_20" type="connected" color="1,1,0" from="start1" to="end2" depart="414.637254" />
    <trip id="start4Toend7_20" type="connected" color="1,1,0" from="start4" to="end7" depart="416.243061" />
    <trip id="start5Toend7_16" type="connected" color="1,1,0" from="start5" to="end7" depart="417.165939" />
    <trip id="start4Toend10_19" type="connected" color="1,1,0" from="start4" to="end10" depart="419.261808" />
    <trip id="start4Toend7_21" type="connected" color="1,1,0" from="start4" to="end7" depart="419.927912" />
    <trip id="start1Toend13_15" type="connected" color="1,1,0" from="start1" to="end13" depart="421.950121" />
    <trip id="start1Toend2_21" type="connected" color="1,1,0" from="start1" to="end2" depart="423.462826" />
    <trip id="start4Toend10_20" type="connected" color="1,1,0" from="start4" to="end10" depart="424.404773" />
    <trip id="start1Toend5_17" type="connected" color="1,1,0" from="start1" to="end5" depart="434.014805" />
    <trip id="start4Toend7_22" type="connected" color="1,1,0" from="start4" to="end7" depart="434.578905" />
    <trip id="start8Toend13_16" type="connected" color="1,1,0" from="start8" to="end13" depart="437.631008" />
    <trip id="start8Toend9_18" type="connected" color="1,1,0" from="start8" to="end9" depart="438.009976" />
    <trip id="start8Toend13_17" type="connected" color="1,1,0" from="start8" to="end13" depart="439.799782" />
    <trip id="start1Toend2_22" type="connected" color="1,1,0" from="start1" to="end2" depart="440.052567" />
    <trip id="start1Toend13_16" type="connected" color="1,1,0" from="start1" to="end13" depart="444.475606" />
    <trip id="start8Toend9_19" type="connected" color="1,1,0" from="start8" to="end9" depart="444.902943" />
    <trip id="start4Toend7_23" type="connected" color="1,1,0" from="start4" to="end7" depart="445.067918" />
    <trip id="start4Toend10_21" type="connected" color="1,1,0" from="start4" to="end10" depart="445.796852" />
    <trip id="start1Toend13_17" type="connected" color="1,1,0" from="start1" to="end13" depart="446.690280" />
    <trip id="start8Toend9_20" type="connected" color="1,1,0" from="start8" to="end9" depart="446.950054" />
    <trip id="start8Toend9_21" type="connected" color="1,1,0" from="start8" to="end9" depart="448.894032" />
    <trip id="start1Toend2_23" type="connected" color="1,1,0" from="start1" to="end2" depart="457.633077" />
    <trip id="start4Toend7_24" type="connected" color="1,1,0" from="start4" to="end7" depart="459.718245" />
    <trip id="start4Toend10_22" type="connected" color="1,1,0" from="start4" to="end10" depart="460.047242" />
    <trip id="start12Toend13_23" type="connected" color="1,1,0" from="start12" to="end13" depart="461.244536" />
    <trip id="start12Toend13_24" type="connected" color="1,1,0" from="start12" to="end13" depart="467.316037" />
    <trip id="start1Toend13_18" type="connected" color="1,1,0" from="start1" to="end13" depart="467.921185" />
    <trip id="start8Toend9_22" type="connected" color="1,1,0" from="start8" to="end9" depart="473.371381" />
    <trip id="start4Toend7_25" type="connected" color="1,1,0" from="start4" to="end7" depart="474.359598" />
    <trip id="start1Toend5_18" type="connected" color="1,1,0" from="start1" to="end5" depart="476.789493" />
    <trip id="start1Toend5_19" type="connected" color="1,1,0" from="start1" to="end5" depart="477.843394" />
    <trip id="start8Toend9_23" type="connected" color="1,1,0" from="start8" to="end9" depart="481.160952" />
    <trip id="start12Toend13_25" type="connected" color="1,1,0" from="start12" to="end13" depart="481.194913" />
    <trip id="start1Toend13_19" type="connected" color="1,1,0" from="start1" to="end13" depart="483.996723" />
    <trip id="start8Toend9_24" type="connected" color="1,1,0" from="start8" to="end9" depart="485.262677" />
    <trip id="start8Toend9_25" type="connected" color="1,1,0" from="start8" to="end9" depart="487.142409" />
    <trip id="start4Toend10_23" type="connected" color="1,1,0" from="start4" to="end10" depart="489.334360" />
    <trip id="start8Toend9_26" type="connected" color="1,1,0" from="start8" to="end9" depart="491.761904" />
    <trip id="start1Toend2_24" type="connected" color="1,1,0" from="start1" to="end2" depart="499.469069" />
    <trip id="start1Toend13_20" type="connected" color="1,1,0" from="start1" to="end13" depart="500.080101" />
    <trip id="start1Toend2_25" type="connected" color="1,1,0" from="start1" to="end2" depart="500.599577" />
    <trip id="start1Toend5_20" type="connected" color="1,1,0" from="start1" to="end5" depart="503.329914" />
    <trip id="start1Toend13_21" type="connected" color="1,1,0" from="start1" to="end13" depart="504.251632" />
    <trip id="start8Toend9_27" type="connected" color="1,1,0" from="start8" to="end9" depart="505.290202" />
    <trip id="start8Toend13_18" type="connected" color="1,1,0" from="start8" to="end13" depart="509.190147" />
    <trip id="start4Toend10_24" type="connected" color="1,1,0" from="start4" to="end10" depart="511.468444" />
    <trip id="start8Toend13_19" type="connected" color="1,1,0" from="start8" to="end13" depart="519.546194" />
    <trip id="start5Toend7_17" type="connected" color="1,1,0" from="start5" to="end7" depart="520.813679" />
    <trip id="start8Toend9_28" type="connected" color="1,1,0" from="start8" to="end9" depart="522.551501" />
    <trip id="start4Toend7_26" type="connected" color="1,1,0" from="start4" to="end7" depart="523.747169" />
    <trip id="start1Toend13_22" type="connected" color="1,1,0" from="start1" to="end13" depart="524.239899" />
    <trip id="start4Toend6_16" type="connected" color="1,1,0" from="start4" to="end6" depart="524.968467" />
    <trip id="start4Toend6_17" type="connected" color="1,1,0" from="start4" to="end6" depart="528.352243" />
    <trip id="start1Toend2_26" type="connected" color="1,1,0" from="start1" to="end2" depart="528.786560" />
    <trip id="start12Toend13_26" type="connected" color="1,1,0" from="start12" to="end13" depart="536.966409" />
    <trip id="start4Toend7_27" type="connected" color="1,1,0" from="start4" to="end7" depart="537.780569" />
    <trip id="start1Toend2_27" type="connected" color="1,1,0" from="start1" to="end2" depart="539.161852" />
    <trip id="start4Toend7_28" type="connected" color="1,1,0" from="start4" to="end7" depart="539.333854" />
    <trip id="start8Toend9_29" type="connected" color="1,1,0" from="start8" to="end9" depart="539.397685" />
    <trip id="start4Toend7_29" type="connected" color="1,1,0" from="start4" to="end7" depart="539.663853" />
    <trip id="start12Toend13_27" type="connected" color="1,1,0" from="start12" to="end13" depart="539.766642" />
    <trip id="start1Toend13_23" type="connected" color="1,1,0" from="start1" to="end13" depart="539.920136" />
    <trip id="start1Toend13_24" type="connected" color="1,1,0" from="start1" to="end13" depart="541.563982" />
    <trip id="start8Toend13_20" type="connected" color="1,1,0" from="start8" to="end13" depart="541.985981" />
    <trip id="start5Toend7_18" type="connected" color="1,1,0" from="start5" to="end7" depart="542.131877" />
    <trip id="start4Toend7_30" type="connected" color="1,1,0" from="start4" to="end7" depart="545.189910" />
    <trip id="start4Toend6_18" type="connected" color="1,1,0" from="start4" to="end6" depart="546.272820" />
    <trip id="start12Toend13_28" type="connected" color="1,1,0" from="start12" to="end13" depart="547.624839" />
    <trip id="start8Toend9_30" type="connected" color="1,1,0" from="start8" to="end9" depart="547.678898" />
    <trip id="start8Toend9_31" type="connected" color="1,1,0" from="start8" to="end9" depart="548.042749" />
    <trip id="start1Toend5_21" type="connected" color="1,1,0" from="start1" to="end5" depart="548.334159" />
    <trip id="start1Toend13_25" type="connected" color="1,1,0" from="start1" to="end13" depart="552.292078" />
    <trip id="start1Toend2_28" type="connected" color="1,1,0" from="start1" to="end2" depart="556.232538" />
    <trip id="start1Toend13_26" type="connected" color="1,1,0" from="start1" to="end13" depart="558.355204" />
    <trip id="start8Toend13_21" type="connected" color="1,1,0" from="start8" to="end13" depart="559.532919" />
    <trip id="start4Toend6_19" type="connected" color="1,1,0" from="start4" to="end6" depart="560.494831" />
    <trip id="start8Toend13_22" type="connected" color="1,1,0" from="start8" to="end13" depart="561.594423" />
    <trip id="start8Toend13_23" type="connected" color="1,1,0" from="start8" to="end13" depart="563.706275" />
    <trip id="start1Toend13_27" type="connected" color="1,1,0" from="start1" to="end13" depart="564.708897" />
    <trip id="start8Toend13_24" type="connected" color="1,1,0" from="start8" to="end13" depart="565.427676" />
    <trip id="start5Toend7_19" type="connected" color="1,1,0" from="start5" to="end7" depart="567.086845" />
    <trip id="start8Toend9_32" type="connected" color="1,1,0" from="start8" to="end9" depart="567.365760" />
    <trip id="start4Toend10_25" type="connected" color="1,1,0" from="start4" to="end10" depart="567.982817" />