<?xml version="1.0" encoding="UTF-8"?>

<!-- generated on 08/19/20 01:05:56 by Eclipse SUMO netedit Version 1.5.0
<configuration xmlns:xsi="http://www.w3.org/2001/XMLSchema-instance" xsi:noNamespaceSchemaLocation="http://sumo.dlr.de/xsd/netconvertConfiguration.xsd">

    <input>
        <sumo-net-file value="C:\Users\Francmeister\Desktop\rl_with_model_2\Nguyen-Dupuis\i210.net.xml"/>
    </input>

    <output>
        <output-file value="C:\Users\Francmeister\Desktop\rl_with_model_2\Nguyen-Dupuis\i210.net.xml"/>
    </output>

    <processing>
        <geometry.min-radius.fix.railways value="false"/>
        <geometry.max-grade.fix value="false"/>
        <offset.disable-normalization value="true"/>
        <lefthand value="false"/>
    </processing>

    <junctions>
        <no-turnarounds value="true"/>
        <junctions.corner-detail value="5"/>
        <junctions.limit-turn-speed value="5.5"/>
        <rectangular-lane-cut value="false"/>
    </junctions>

    <pedestrian>
        <walkingareas value="false"/>
    </pedestrian>

    <netedit>
        <additional-files value="C:\Users\Francmeister\Desktop\rl_with_model_2\Nguyen-Dupuis\i210.add.xml"/>
    </netedit>

    <report>
        <aggregate-warnings value="5"/>
    </report>

</configuration>
-->

<additional xmlns:xsi="http://www.w3.org/2001/XMLSchema-instance" xsi:noNamespaceSchemaLocation="http://sumo.dlr.de/xsd/additional_file.xsd">
    <e1Detector id="e1Detectorlink1" lane="link1_0" pos="14800.00" freq="900.00" file="e1Detector_link1_0_0.xml"/>
    <e1Detector id="e1Detectorlink10" lane="link10_0" pos="2970.00" freq="900.00" file="e1Detector_link10_0_18.xml"/>
    <e1Detector id="e1Detectorlink11" lane="link11_0" pos="340.00" freq="900.00" file="e1Detector_link11_0_20.xml"/>
    <e1Detector id="e1Detectorlink12" lane="link12_0" pos="1600.00" freq="900.00" file="e1Detector_link12_0_22.xml"/>
    <e1Detector id="e1Detectorlink14" lane="link14_0" pos="14800.05" freq="900.00" file="e1Detector_link14_0_1.xml"/>
    <e1Detector id="e1Detectorlink15" lane="link15_0" pos="2400.00" freq="900.00" file="e1Detector_link15_0_3.xml"/>
    <e1Detector id="e1Detectorlink16" lane="link16_0" pos="2520.00" freq="900.00" file="e1Detector_link16_0_5.xml"/>
    <e1Detector id="e1Detectorlink17" lane="link17_0" pos="6700.00" freq="900.00" file="e1Detector_link17_0_7.xml"/>
    <e1Detector id="e1Detectorlink18" lane="link18_0" pos="1850.00" freq="900.00" file="e1Detector_link18_0_9.xml"/>
    <e1Detector id="e1Detectorlink19" lane="link19_0" pos="1260.00" freq="900.00" file="e1Detector_link19_0_11.xml"/>
    <e1Detector id="e1Detectorlink2" lane="link2_0" pos="2400.00" freq="900.00" file="e1Detector_link2_0_2.xml"/>
    <e1Detector id="e1Detectorlink20" lane="link20_0" pos="480.00" freq="900.00" file="e1Detector_link20_0_13.xml"/>
    <e1Detector id="e1Detectorlink21" lane="link21_0" pos="2040.00" freq="900.00" file="e1Detector_link21_0_15.xml"/>
    <e1Detector id="e1Detectorlink22" lane="link22_0" pos="1050.00" freq="900.00" file="e1Detector_link22_0_16.xml"/>
    <e1Detector id="e1Detectorlink23" lane="link23_0" pos="2970.00" freq="900.00" file="e1Detector_link23_0_19.xml"/>
    <e1Detector id="e1Detectorlink24" lane="link24_0" pos="340.00" freq="900.00" file="e1Detector_link24_0_21.xml"/>
    <e1Detector id="e1Detectorlink25" lane="link25_0" pos="1600.00" freq="900.00" file="e1Detector_link25_0_23.xml"/>
    <e1Detector id="e1Detectorlink3" lane="link3_0" pos="2520.00" freq="900.00" file="e1Detector_link3_0_4.xml"/>
    <e1Detector id="e1Detectorlink4" lane="link4_0" pos="6700.00" freq="900.00" file="e1Detector_link4_0_6.xml"/>
    <e1Detector id="e1Detectorlink5" lane="link5_0" pos="1850.00" freq="900.00" file="e1Detector_link5_0_8.xml"/>
    <e1Detector id="e1Detectorlink6" lane="link6_0" pos="1260.00" freq="900.00" file="e1Detector_link6_0_10.xml"/>
    <e1Detector id="e1Detectorlink7" lane="link7_0" pos="480.00" freq="900.00" file="e1Detector_link7_0_12.xml"/>
    <e1Detector id="e1Detectorlink8" lane="link8_0" pos="2040.00" freq="900.00" file="e1Detector_link8_0_14.xml"/>
    <e1Detector id="e1Detectorlink9" lane="link9_0" pos="1050.00" freq="900.00" file="e1Detector_link9_0_17.xml"/>
</additional>
