<?xml version="1.0" encoding="UTF-8"?>

<!-- generated on 06/22/20 19:11:04 by Eclipse SUMO netedit Version 1.5.0
<configuration xmlns:xsi="http://www.w3.org/2001/XMLSchema-instance" xsi:noNamespaceSchemaLocation="http://sumo.dlr.de/xsd/netconvertConfiguration.xsd">

    <output>
        <output-file value="C:\Users\Francmeister\Desktop\RL_With_SUMO\Nguyen-Dupuis\merge.net.xml"/>
    </output>

    <processing>
        <offset.disable-normalization value="true"/>
    </processing>

    <junctions>
        <no-turnarounds value="true"/>
    </junctions>

    <report>
        <aggregate-warnings value="5"/>
    </report>

</configuration>
-->

<net version="1.3" junctionCornerDetail="5" limitTurnSpeed="5.50" xmlns:xsi="http://www.w3.org/2001/XMLSchema-instance" xsi:noNamespaceSchemaLocation="http://sumo.dlr.de/xsd/net_file.xsd">

    <location netOffset="0.00,0.00" convBoundary="-800.00,-800.00,30045.78,800.00" origBoundary="10000000000.00,10000000000.00,-10000000000.00,-10000000000.00" projParameter="!"/>

    <edge id=":gneJ0_0" function="internal">
        <lane id=":gneJ0_0_0" index="0" speed="40.00" length="0.10" shape="-708.13,705.87 -708.13,705.87"/>
    </edge>
    <edge id=":gneJ1_0" function="internal">
        <lane id=":gneJ1_0_0" index="0" speed="40.00" length="6.20" shape="-2.30,-4.57 -0.86,-3.27 0.50,-2.34 1.78,-1.79 2.98,-1.60"/>
    </edge>
    <edge id=":gneJ1_1" function="internal">
        <lane id=":gneJ1_1_0" index="0" speed="40.00" length="2.16" shape="-2.30,0.04 -1.36,-0.68 -0.46,-1.06"/>
    </edge>
    <edge id=":gneJ1_2" function="internal">
        <lane id=":gneJ1_2_0" index="0" speed="40.00" length="3.51" shape="-0.46,-1.06 -0.16,-1.19 1.29,-1.50 2.98,-1.60"/>
    </edge>
    <edge id=":gneJ2_0" function="internal">
        <lane id=":gneJ2_0_0" index="0" speed="40.00" length="0.10" shape="-705.87,-708.13 -705.87,-708.13"/>
    </edge>
    <edge id=":gneJ4_0" function="internal">
        <lane id=":gneJ4_0_0" index="0" speed="40.00" length="0.30" shape="29999.85,-1.60 30000.15,-1.60"/>
    </edge>

    <edge id="end1" from="gneJ4" to="gneJ7" priority="-1">
        <lane id="end1_0" index="0" speed="40.00" length="45.63" shape="30000.15,-1.60 30045.78,-1.49"/>
    </edge>
    <edge id="link1" from="gneJ0" to="gneJ1" priority="-1" length="1100.00">
        <lane id="link1_0" index="0" speed="40.00" length="1100.00" shape="-708.13,705.87 -2.30,0.04"/>
    </edge>
    <edge id="link2" from="gneJ2" to="gneJ1" priority="-1" length="1100.00">
        <lane id="link2_0" index="0" speed="40.00" length="1100.00" shape="-705.87,-708.13 -2.30,-4.57"/>
    </edge>
    <edge id="link3" from="gneJ1" to="gneJ4" priority="-1" length="30000.00">
        <lane id="link3_0" index="0" speed="40.00" length="30000.00" shape="2.98,-1.60 29999.85,-1.60"/>
    </edge>
    <edge id="start1" from="gneJ5" to="gneJ0" priority="-1" length="100.00">
        <lane id="start1_0" index="0" speed="40.00" length="100.00" shape="-801.13,798.87 -708.13,705.87"/>
    </edge>
    <edge id="start2" from="gneJ6" to="gneJ2" priority="-1" length="100.00">
        <lane id="start2_0" index="0" speed="40.00" length="100.00" shape="-798.87,-801.13 -705.87,-708.13"/>
    </edge>

    <junction id="gneJ0" type="priority" x="-707.00" y="707.00" incLanes="start1_0" intLanes=":gneJ0_0_0" shape="-707.00,707.00 -709.26,704.74 -707.00,707.00">
        <request index="0" response="0" foes="0" cont="0"/>
    </junction>
    <junction id="gneJ1" type="priority" x="0.00" y="0.00" incLanes="link2_0 link1_0" intLanes=":gneJ1_0_0 :gneJ1_2_0" shape="2.98,0.00 2.98,-3.20 1.78,-3.48 1.12,-3.82 0.40,-4.31 -0.36,-4.93 -1.17,-5.70 -3.43,-3.43 -2.91,-2.65 -2.85,-2.26 -2.91,-1.87 -3.11,-1.48 -3.43,-1.09 -1.17,1.17 -0.19,0.52 0.45,0.29 1.20,0.13 2.04,0.03">
        <request index="0" response="00" foes="10" cont="0"/>
        <request index="1" response="01" foes="01" cont="1"/>
    </junction>
    <junction id="gneJ2" type="priority" x="-707.00" y="-707.00" incLanes="start2_0" intLanes=":gneJ2_0_0" shape="-707.00,-707.00 -704.74,-709.26 -707.00,-707.00">
        <request index="0" response="0" foes="0" cont="0"/>
    </junction>
    <junction id="gneJ4" type="priority" x="30000.00" y="0.00" incLanes="link3_0" intLanes=":gneJ4_0_0" shape="30000.15,0.00 30000.16,-3.20 29999.85,-3.20 29999.85,0.00">
        <request index="0" response="0" foes="0" cont="0"/>
    </junction>
    <junction id="gneJ5" type="dead_end" x="-800.00" y="800.00" incLanes="" intLanes="" shape="-800.00,800.00 -802.26,797.74"/>
    <junction id="gneJ6" type="dead_end" x="-800.00" y="-800.00" incLanes="" intLanes="" shape="-800.00,-800.00 -797.74,-802.26"/>
    <junction id="gneJ7" type="dead_end" x="30045.78" y="0.11" incLanes="end1_0" intLanes="" shape="30045.79,-3.09 30045.78,0.11"/>

    <junction id=":gneJ1_2_0" type="internal" x="-0.46" y="-1.06" incLanes=":gneJ1_1_0 link2_0" intLanes=":gneJ1_0_0"/>

    <connection from="link1" to="link3" fromLane="0" toLane="0" via=":gneJ1_1_0" dir="l" state="m"/>
    <connection from="link2" to="link3" fromLane="0" toLane="0" via=":gneJ1_0_0" dir="r" state="M"/>
    <connection from="link3" to="end1" fromLane="0" toLane="0" via=":gneJ4_0_0" dir="s" state="M"/>
    <connection from="start1" to="link1" fromLane="0" toLane="0" via=":gneJ0_0_0" dir="s" state="M"/>
    <connection from="start2" to="link2" fromLane="0" toLane="0" via=":gneJ2_0_0" dir="s" state="M"/>

    <connection from=":gneJ0_0" to="link1" fromLane="0" toLane="0" dir="s" state="M"/>
    <connection from=":gneJ1_0" to="link3" fromLane="0" toLane="0" dir="r" state="M"/>
    <connection from=":gneJ1_1" to="link3" fromLane="0" toLane="0" via=":gneJ1_2_0" dir="l" state="m"/>
    <connection from=":gneJ1_2" to="link3" fromLane="0" toLane="0" dir="l" state="M"/>
    <connection from=":gneJ2_0" to="link2" fromLane="0" toLane="0" dir="s" state="M"/>
    <connection from=":gneJ4_0" to="end1" fromLane="0" toLane="0" dir="s" state="M"/>

</net>
