<?xml version="1.0" encoding="UTF-8"?>

<routes>

	<route id="route0" edges="start1 end1" />
    <route id="route2" edges="start2 end1" />


    <vType id="conventional" vClass="passenger" sigma="1" maxSpeed="40.0" color="red" accel="10.0"/>
    <vType id="connected" vClass="passenger" tau="1.3" maxSpeed="28.00" lcCooperative="0.0" color="1,1,0" lcStrategic="1.0" accel="3.0" decel="1.5" emergencyDecel="4.5" lcSpeedGain="0.3" sigma="0.0" lcKeepRight="0.3"/>
    <vType id="connected_pCatchupFollower" vClass="passenger" emergencyDecel="4.5" length="5" tau="0.1" maxSpeed="28.00" color="1,1,0" accel="10.3" decel="1.7" sigma="0.0" minGap="2.0"/>
    <vType id="connected_pCatchup" vClass="passenger" tau="0.1" emergencyDecel="4.5" maxSpeed="28.00" color="0,0.8,0.3" accel="10.3" decel="1.7" sigma="0.0" minGap="2.0"/>
    <vType id="connected_pFollower" vClass="passenger" tau="0.1" maxSpeed="28.00" color="1,1,0" accel="10.3" decel="1.7" sigma="0.0"  minGap="2.0" emergencyDecel="4.5"/>
    <vType id="connected_pLeader" vClass="passenger" length="5" tau="1.3" maxSpeed="28.00" lcCooperative="0.0" color="1,1,0" lcStrategic="1.0" accel="2.0" decel="1.5" emergencyDecel="4.5" lcSpeedGain="0.3" sigma="0.0" lcKeepRight="0.3"/>
    


	
    <trip id="start1Toend1_0" type="connected" color="1,1,0" from="start1" to="end1" depart="0.000000" />
    <trip id="start2Toend1_0" type="connected" color="1,1,0" from="start2" to="end1" depart="0.000000" />
    <trip id="start1Toend1_1" type="connected" color="1,1,0" from="start1" to="end1" depart="8.483688" />
    <trip id="start1Toend1_2" type="connected" color="1,1,0" from="start1" to="end1" depart="77.921425" />
    <trip id="start1Toend1_3" type="connected" color="1,1,0" from="start1" to="end1" depart="79.048175" />
    <trip id="start2Toend1_1" type="connected" color="1,1,0" from="start2" to="end1" depart="94.190064" />
    <trip id="start1Toend1_4" type="connected" color="1,1,0" from="start1" to="end1" depart="174.150444" />
    <trip id="start1Toend1_5" type="connected" color="1,1,0" from="start1" to="end1" depart="182.017828" />
    <trip id="start1Toend1_6" type="connected" color="1,1,0" from="start1" to="end1" depart="230.682551" />
    <trip id="start1Toend1_7" type="connected" color="1,1,0" from="start1" to="end1" depart="234.011453" />
    <trip id="start2Toend1_2" type="connected" color="1,1,0" from="start2" to="end1" depart="250.647681" />
    <trip id="start2Toend1_3" type="connected" color="1,1,0" from="start2" to="end1" depart="270.102577" />
    <trip id="start2Toend1_4" type="connected" color="1,1,0" from="start2" to="end1" depart="302.512378" />
    <trip id="start2Toend1_5" type="connected" color="1,1,0" from="start2" to="end1" depart="303.190184" />
    <trip id="start1Toend1_8" type="connected" color="1,1,0" from="start1" to="end1" depart="352.234146" />
    <trip id="start2Toend1_6" type="connected" color="1,1,0" from="start2" to="end1" depart="387.567188" />
    <trip id="start1Toend1_9" type="connected" color="1,1,0" from="start1" to="end1" depart="404.017111" />
    <trip id="start2Toend1_7" type="connected" color="1,1,0" from="start2" to="end1" depart="428.894864" />
    <trip id="start1Toend1_10" type="connected" color="1,1,0" from="start1" to="end1" depart="433.414557" />
    <trip id="start2Toend1_8" type="connected" color="1,1,0" from="start2" to="end1" depart="437.499026" />
    <trip id="start2Toend1_9" type="connected" color="1,1,0" from="start2" to="end1" depart="469.959936" />
    <trip id="start2Toend1_10" type="connected" color="1,1,0" from="start2" to="end1" depart="496.088390" />
    <trip id="start2Toend1_11" type="connected" color="1,1,0" from="start2" to="end1" depart="508.032318" />
    <trip id="start2Toend1_12" type="connected" color="1,1,0" from="start2" to="end1" depart="568.982715" />
    <trip id="start2Toend1_13" type="connected" color="1,1,0" from="start2" to="end1" depart="632.039088" />
    <trip id="start1Toend1_11" type="connected" color="1,1,0" from="start1" to="end1" depart="657.221542" />
    <trip id="start2Toend1_14" type="connected" color="1,1,0" from="start2" to="end1" depart="677.038688" />
    <trip id="start2Toend1_15" type="connected" color="1,1,0" from="start2" to="end1" depart="684.017750" />
    <trip id="start2Toend1_16" type="connected" color="1,1,0" from="start2" to="end1" depart="694.282471" />
    <trip id="start1Toend1_12" type="connected" color="1,1,0" from="start1" to="end1" depart="707.047919" />
    <trip id="start1Toend1_13" type="connected" color="1,1,0" from="start1" to="end1" depart="722.755712" />
    <trip id="start2Toend1_17" type="connected" color="1,1,0" from="start2" to="end1" depart="736.788617" />
    <trip id="start2Toend1_18" type="connected" color="1,1,0" from="start2" to="end1" depart="779.186465" />
    <trip id="start1Toend1_14" type="connected" color="1,1,0" from="start1" to="end1" depart="813.091542" />
    <trip id="start2Toend1_19" type="connected" color="1,1,0" from="start2" to="end1" depart="820.961783" />
    <trip id="start2Toend1_20" type="connected" color="1,1,0" from="start2" to="end1" depart="824.834897" />
    <trip id="start1Toend1_15" type="connected" color="1,1,0" from="start1" to="end1" depart="827.667199" />
    <trip id="start1Toend1_16" type="connected" color="1,1,0" from="start1" to="end1" depart="893.785105" />
    <trip id="start2Toend1_21" type="connected" color="1,1,0" from="start2" to="end1" depart="931.769626" />
    <trip id="start1Toend1_17" type="connected" color="1,1,0" from="start1" to="end1" depart="950.785021" />
    <trip id="start1Toend1_18" type="connected" color="1,1,0" from="start1" to="end1" depart="951.481685" />
    <trip id="start1Toend1_19" type="connected" color="1,1,0" from="start1" to="end1" depart="953.881850" />
    <trip id="start1Toend1_20" type="connected" color="1,1,0" from="start1" to="end1" depart="991.061059" />
    <trip id="start1Toend1_21" type="connected" color="1,1,0" from="start1" to="end1" depart="995.008356" />
    <trip id="start1Toend1_22" type="connected" color="1,1,0" from="start1" to="end1" depart="1000.745748" />
    <trip id="start2Toend1_22" type="connected" color="1,1,0" from="start2" to="end1" depart="1009.891235" />
    <trip id="start2Toend1_23" type="connected" color="1,1,0" from="start2" to="end1" depart="1010.468627" />
    <trip id="start2Toend1_24" type="connected" color="1,1,0" from="start2" to="end1" depart="1012.752305" />
    <trip id="start2Toend1_25" type="connected" color="1,1,0" from="start2" to="end1" depart="1013.825704" />
    <trip id="start1Toend1_23" type="connected" color="1,1,0" from="start1" to="end1" depart="1055.756280" />
    <trip id="start2Toend1_26" type="connected" color="1,1,0" from="start2" to="end1" depart="1075.150925" />
    <trip id="start1Toend1_24" type="connected" color="1,1,0" from="start1" to="end1" depart="1096.486511" />
    <trip id="start2Toend1_27" type="connected" color="1,1,0" from="start2" to="end1" depart="1099.019755" />
    <trip id="start2Toend1_28" type="connected" color="1,1,0" from="start2" to="end1" depart="1105.890585" />
    <trip id="start2Toend1_29" type="connected" color="1,1,0" from="start2" to="end1" depart="1161.876949" />
    <trip id="start1Toend1_25" type="connected" color="1,1,0" from="start1" to="end1" depart="1188.869897" />
    <trip id="start2Toend1_30" type="connected" color="1,1,0" from="start2" to="end1" depart="1198.478313" />
    <trip id="start1Toend1_26" type="connected" color="1,1,0" from="start1" to="end1" depart="1199.423202" />
    <trip id="start1Toend1_27" type="connected" color="1,1,0" from="start1" to="end1" depart="1209.065326" />
    <trip id="start2Toend1_31" type="connected" color="1,1,0" from="start2" to="end1" depart="1221.189527" />
    <trip id="start1Toend1_28" type="connected" color="1,1,0" from="start1" to="end1" depart="1223.333177" />
    <trip id="start2Toend1_32" type="connected" color="1,1,0" from="start2" to="end1" depart="1234.503829" />
    <trip id="start1Toend1_29" type="connected" color="1,1,0" from="start1" to="end1" depart="1236.186114" />
    <trip id="start1Toend1_30" type="connected" color="1,1,0" from="start1" to="end1" depart="1256.009215" />
    <trip id="start1Toend1_31" type="connected" color="1,1,0" from="start1" to="end1" depart="1291.301230" />
    <trip id="start2Toend1_33" type="connected" color="1,1,0" from="start2" to="end1" depart="1327.916567" />
    <trip id="start1Toend1_32" type="connected" color="1,1,0" from="start1" to="end1" depart="1335.797777" />
    <trip id="start2Toend1_34" type="connected" color="1,1,0" from="start2" to="end1" depart="1338.837652" />
    <trip id="start1Toend1_33" type="connected" color="1,1,0" from="start1" to="end1" depart="1341.207462" />
    <trip id="start2Toend1_35" type="connected" color="1,1,0" from="start2" to="end1" depart="1356.147661" />
    <trip id="start1Toend1_34" type="connected" color="1,1,0" from="start1" to="end1" depart="1379.827450" />
    <trip id="start2Toend1_36" type="connected" color="1,1,0" from="start2" to="end1" depart="1415.931748" />
    <trip id="start1Toend1_35" type="connected" color="1,1,0" from="start1" to="end1" depart="1419.113449" />
    <trip id="start1Toend1_36" type="connected" color="1,1,0" from="start1" to="end1" depart="1431.843361" />
    <trip id="start2Toend1_37" type="connected" color="1,1,0" from="start2" to="end1" depart="1431.977821" />
    <trip id="start1Toend1_37" type="connected" color="1,1,0" from="start1" to="end1" depart="1539.991483" />
    <trip id="start2Toend1_38" type="connected" color="1,1,0" from="start2" to="end1" depart="1546.180231" />
    <trip id="start2Toend1_39" type="connected" color="1,1,0" from="start2" to="end1" depart="1547.751601" />
    <trip id="start2Toend1_40" type="connected" color="1,1,0" from="start2" to="end1" depart="1587.155511" />
    <trip id="start1Toend1_38" type="connected" color="1,1,0" from="start1" to="end1" depart="1602.820706" />
    <trip id="start2Toend1_41" type="connected" color="1,1,0" from="start2" to="end1" depart="1615.042942" />
    <trip id="start2Toend1_42" type="connected" color="1,1,0" from="start2" to="end1" depart="1617.938653" />
    <trip id="start2Toend1_43" type="connected" color="1,1,0" from="start2" to="end1" depart="1667.028770" />
    <trip id="start1Toend1_39" type="connected" color="1,1,0" from="start1" to="end1" depart="1697.240866" />
    <trip id="start2Toend1_44" type="connected" color="1,1,0" from="start2" to="end1" depart="1704.521136" />
    <trip id="start2Toend1_45" type="connected" color="1,1,0" from="start2" to="end1" depart="1719.940961" />
    <trip id="start2Toend1_46" type="connected" color="1,1,0" from="start2" to="end1" depart="1791.747199" />
    <trip id="start1Toend1_40" type="connected" color="1,1,0" from="start1" to="end1" depart="1808.532181" />
    <trip id="start2Toend1_47" type="connected" color="1,1,0" from="start2" to="end1" depart="1824.716645" />
    <trip id="start2Toend1_48" type="connected" color="1,1,0" from="start2" to="end1" depart="1827.213244" />
    <trip id="start1Toend1_41" type="connected" color="1,1,0" from="start1" to="end1" depart="1846.382578" />
    <trip id="start2Toend1_49" type="connected" color="1,1,0" from="start2" to="end1" depart="1893.906680" />
    <trip id="start1Toend1_42" type="connected" color="1,1,0" from="start1" to="end1" depart="1901.423239" />
    <trip id="start2Toend1_50" type="connected" color="1,1,0" from="start2" to="end1" depart="1937.603957" />
    <trip id="start2Toend1_51" type="connected" color="1,1,0" from="start2" to="end1" depart="1993.099304" />
    <trip id="start2Toend1_52" type="connected" color="1,1,0" from="start2" to="end1" depart="2014.164628" />
    <trip id="start1Toend1_43" type="connected" color="1,1,0" from="start1" to="end1" depart="2065.067557" />
    <trip id="start1Toend1_44" type="connected" color="1,1,0" from="start1" to="end1" depart="2067.623946" />
    <trip id="start1Toend1_45" type="connected" color="1,1,0" from="start1" to="end1" depart="2076.431753" />
    <trip id="start1Toend1_46" type="connected" color="1,1,0" from="start1" to="end1" depart="2078.851171" />
    <trip id="start1Toend1_47" type="connected" color="1,1,0" from="start1" to="end1" depart="2109.416206" />
    <trip id="start2Toend1_53" type="connected" color="1,1,0" from="start2" to="end1" depart="2146.654397" />
    <trip id="start1Toend1_48" type="connected" color="1,1,0" from="start1" to="end1" depart="2171.652693" />
    <trip id="start2Toend1_54" type="connected" color="1,1,0" from="start2" to="end1" depart="2178.813055" />
    <trip id="start2Toend1_55" type="connected" color="1,1,0" from="start2" to="end1" depart="2183.133809" />
    <trip id="start1Toend1_49" type="connected" color="1,1,0" from="start1" to="end1" depart="2192.669464" />
    <trip id="start2Toend1_56" type="connected" color="1,1,0" from="start2" to="end1" depart="2249.557111" />
    <trip id="start2Toend1_57" type="connected" color="1,1,0" from="start2" to="end1" depart="2268.148233" />
    <trip id="start1Toend1_50" type="connected" color="1,1,0" from="start1" to="end1" depart="2343.745923" />
    <trip id="start1Toend1_51" type="connected" color="1,1,0" from="start1" to="end1" depart="2344.812676" />
    <trip id="start1Toend1_52" type="connected" color="1,1,0" from="start1" to="end1" depart="2378.991796" />
    <trip id="start2Toend1_58" type="connected" color="1,1,0" from="start2" to="end1" depart="2379.083188" />
    <trip id="start1Toend1_53" type="connected" color="1,1,0" from="start1" to="end1" depart="2381.793268" />
    <trip id="start1Toend1_54" type="connected" color="1,1,0" from="start1" to="end1" depart="2402.418664" />
    <trip id="start1Toend1_55" type="connected" color="1,1,0" from="start1" to="end1" depart="2411.061591" />
    <trip id="start1Toend1_56" type="connected" color="1,1,0" from="start1" to="end1" depart="2437.119515" />
    <trip id="start1Toend1_57" type="connected" color="1,1,0" from="start1" to="end1" depart="2494.250530" />
    <trip id="start2Toend1_59" type="connected" color="1,1,0" from="start2" to="end1" depart="2504.714853" />
    <trip id="start2Toend1_60" type="connected" color="1,1,0" from="start2" to="end1" depart="2540.068486" />
    <trip id="start1Toend1_58" type="connected" color="1,1,0" from="start1" to="end1" depart="2541.177819" />
    <trip id="start1Toend1_59" type="connected" color="1,1,0" from="start1" to="end1" depart="2544.013748" />
    <trip id="start2Toend1_61" type="connected" color="1,1,0" from="start2" to="end1" depart="2548.433901" />
    <trip id="start2Toend1_62" type="connected" color="1,1,0" from="start2" to="end1" depart="2555.389988" />
    <trip id="start1Toend1_60" type="connected" color="1,1,0" from="start1" to="end1" depart="2564.694882" />
    <trip id="start1Toend1_61" type="connected" color="1,1,0" from="start1" to="end1" depart="2578.479081" />
    <trip id="start1Toend1_62" type="connected" color="1,1,0" from="start1" to="end1" depart="2583.168951" />
    <trip id="start1Toend1_63" type="connected" color="1,1,0" from="start1" to="end1" depart="2610.144863" />
    <trip id="start2Toend1_63" type="connected" color="1,1,0" from="start2" to="end1" depart="2631.102495" />
    <trip id="start1Toend1_64" type="connected" color="1,1,0" from="start1" to="end1" depart="2681.477863" />
    <trip id="start1Toend1_65" type="connected" color="1,1,0" from="start1" to="end1" depart="2714.963941" />
    <trip id="start2Toend1_64" type="connected" color="1,1,0" from="start2" to="end1" depart="2721.637812" />
    <trip id="start2Toend1_65" type="connected" color="1,1,0" from="start2" to="end1" depart="2731.767616" />
    <trip id="start2Toend1_66" type="connected" color="1,1,0" from="start2" to="end1" depart="2778.875221" />
    <trip id="start2Toend1_67" type="connected" color="1,1,0" from="start2" to="end1" depart="2810.110287" />
    <trip id="start1Toend1_66" type="connected" color="1,1,0" from="start1" to="end1" depart="2824.213168" />
    <trip id="start2Toend1_68" type="connected" color="1,1,0" from="start2" to="end1" depart="2835.056726" />
    <trip id="start2Toend1_69" type="connected" color="1,1,0" from="start2" to="end1" depart="2838.208365" />
    <trip id="start2Toend1_70" type="connected" color="1,1,0" from="start2" to="end1" depart="2875.581059" />
    <trip id="start1Toend1_67" type="connected" color="1,1,0" from="start1" to="end1" depart="2885.462670" />
    <trip id="start2Toend1_71" type="connected" color="1,1,0" from="start2" to="end1" depart="2901.886966" />
    <trip id="start2Toend1_72" type="connected" color="1,1,0" from="start2" to="end1" depart="2912.339059" />
    <trip id="start2Toend1_73" type="connected" color="1,1,0" from="start2" to="end1" depart="2967.600613" />
    <trip id="start2Toend1_74" type="connected" color="1,1,0" from="start2" to="end1" depart="3011.111304" />
    <trip id="start1Toend1_68" type="connected" color="1,1,0" from="start1" to="end1" depart="3034.591829" />
    <trip id="start2Toend1_75" type="connected" color="1,1,0" from="start2" to="end1" depart="3072.542580" />
    <trip id="start1Toend1_69" type="connected" color="1,1,0" from="start1" to="end1" depart="3094.128644" />
    <trip id="start2Toend1_76" type="connected" color="1,1,0" from="start2" to="end1" depart="3099.527015" />
    <trip id="start2Toend1_77" type="connected" color="1,1,0" from="start2" to="end1" depart="3118.745720" />
    <trip id="start2Toend1_78" type="connected" color="1,1,0" from="start2" to="end1" depart="3134.339292" />
    <trip id="start2Toend1_79" type="connected" color="1,1,0" from="start2" to="end1" depart="3156.671498" />
    <trip id="start1Toend1_70" type="connected" color="1,1,0" from="start1" to="end1" depart="3157.412985" />
    <trip id="start2Toend1_80" type="connected" color="1,1,0" from="start2" to="end1" depart="3170.173092" />
    <trip id="start1Toend1_71" type="connected" color="1,1,0" from="start1" to="end1" depart="3179.394959" />
    <trip id="start1Toend1_72" type="connected" color="1,1,0" from="start1" to="end1" depart="3246.564976" />
    <trip id="start1Toend1_73" type="connected" color="1,1,0" from="start1" to="end1" depart="3250.027924" />
    <trip id="start1Toend1_74" type="connected" color="1,1,0" from="start1" to="end1" depart="3260.461769" />
    <trip id="start1Toend1_75" type="connected" color="1,1,0" from="start1" to="end1" depart="3298.847790" />
    <trip id="start2Toend1_81" type="connected" color="1,1,0" from="start2" to="end1" depart="3333.421673" />
    <trip id="start2Toend1_82" type="connected" color="1,1,0" from="start2" to="end1" depart="3342.954399" />
    <trip id="start2Toend1_83" type="connected" color="1,1,0" from="start2" to="end1" depart="3363.189350" />
    <trip id="start2Toend1_84" type="connected" color="1,1,0" from="start2" to="end1" depart="3401.685046" />
    <trip id="start2Toend1_85" type="connected" color="1,1,0" from="start2" to="end1" depart="3429.926301" />
    <trip id="start2Toend1_86" type="connected" color="1,1,0" from="start2" to="end1" depart="3446.104317" />
    <trip id="start1Toend1_76" type="connected" color="1,1,0" from="start1" to="end1" depart="3459.737548" />
    <trip id="start1Toend1_77" type="connected" color="1,1,0" from="start1" to="end1" depart="3504.519701" />
    <trip id="start2Toend1_87" type="connected" color="1,1,0" from="start2" to="end1" depart="3518.307432" />
    <trip id="start1Toend1_78" type="connected" color="1,1,0" from="start1" to="end1" depart="3519.290831" />
    <trip id="start2Toend1_88" type="connected" color="1,1,0" from="start2" to="end1" depart="3562.746130" />
    <trip id="start1Toend1_79" type="connected" color="1,1,0" from="start1" to="end1" depart="3565.220406" />
    <trip id="start1Toend1_80" type="connected" color="1,1,0" from="start1" to="end1" depart="3607.082824" />
    <trip id="start2Toend1_89" type="connected" color="1,1,0" from="start2" to="end1" depart="3634.015587" />
    <trip id="start1Toend1_81" type="connected" color="1,1,0" from="start1" to="end1" depart="3644.127813" />
    <trip id="start1Toend1_82" type="connected" color="1,1,0" from="start1" to="end1" depart="3672.832687" />
    <trip id="start2Toend1_90" type="connected" color="1,1,0" from="start2" to="end1" depart="3692.161824" />
    <trip id="start2Toend1_91" type="connected" color="1,1,0" from="start2" to="end1" depart="3692.325084" />
    <trip id="start2Toend1_92" type="connected" color="1,1,0" from="start2" to="end1" depart="3704.102212" />
    <trip id="start1Toend1_83" type="connected" color="1,1,0" from="start1" to="end1" depart="3720.038964" />
    <trip id="start2Toend1_93" type="connected" color="1,1,0" from="start2" to="end1" depart="3751.884443" />
    <trip id="start1Toend1_84" type="connected" color="1,1,0" from="start1" to="end1" depart="3782.960264" />
    <trip id="start2Toend1_94" type="connected" color="1,1,0" from="start2" to="end1" depart="3784.558066" />
    <trip id="start2Toend1_95" type="connected" color="1,1,0" from="start2" to="end1" depart="3791.314112" />
    <trip id="start1Toend1_85" type="connected" color="1,1,0" from="start1" to="end1" depart="3793.018419" />
    <trip id="start1Toend1_86" type="connected" color="1,1,0" from="start1" to="end1" depart="3801.204626" />
    <trip id="start1Toend1_87" type="connected" color="1,1,0" from="start1" to="end1" depart="3820.084876" />
    <trip id="start1Toend1_88" type="connected" color="1,1,0" from="start1" to="end1" depart="3839.089931" />
    <trip id="start2Toend1_96" type="connected" color="1,1,0" from="start2" to="end1" depart="3848.013155" />
    <trip id="start1Toend1_89" type="connected" color="1,1,0" from="start1" to="end1" depart="3861.517688" />
    <trip id="start1Toend1_90" type="connected" color="1,1,0" from="start1" to="end1" depart="3868.537572" />
    <trip id="start2Toend1_97" type="connected" color="1,1,0" from="start2" to="end1" depart="3882.823889" />
    <trip id="start1Toend1_91" type="connected" color="1,1,0" from="start1" to="end1" depart="3882.858862" />
    <trip id="start2Toend1_98" type="connected" color="1,1,0" from="start2" to="end1" depart="3889.231762" />
    <trip id="start1Toend1_92" type="connected" color="1,1,0" from="start1" to="end1" depart="3912.932161" />
    <trip id="start1Toend1_93" type="connected" color="1,1,0" from="start1" to="end1" depart="3921.694508" />
    <trip id="start2Toend1_99" type="connected" color="1,1,0" from="start2" to="end1" depart="3929.812594" />
    <trip id="start2Toend1_100" type="connected" color="1,1,0" from="start2" to="end1" depart="3952.205866" />
    <trip id="start2Toend1_101" type="connected" color="1,1,0" from="start2" to="end1" depart="3956.449929" />
    <trip id="start2Toend1_102" type="connected" color="1,1,0" from="start2" to="end1" depart="3971.093407" />
    <trip id="start1Toend1_94" type="connected" color="1,1,0" from="start1" to="end1" depart="3990.013736" />
    <trip id="start1Toend1_95" type="connected" color="1,1,0" from="start1" to="end1" depart="4005.089538" />
    <trip id="start1Toend1_96" type="connected" color="1,1,0" from="start1" to="end1" depart="4040.624843" />
    <trip id="start2Toend1_103" type="connected" color="1,1,0" from="start2" to="end1" depart="4048.930300" />
    <trip id="start2Toend1_104" type="connected" color="1,1,0" from="start2" to="end1" depart="4076.431325" />
    <trip id="start2Toend1_105" type="connected" color="1,1,0" from="start2" to="end1" depart="4082.064143" />
    <trip id="start2Toend1_106" type="connected" color="1,1,0" from="start2" to="end1" depart="4086.061079" />
    <trip id="start2Toend1_107" type="connected" color="1,1,0" from="start2" to="end1" depart="4086.929641" />
    <trip id="start2Toend1_108" type="connected" color="1,1,0" from="start2" to="end1" depart="4092.617042" />
    <trip id="start2Toend1_109" type="connected" color="1,1,0" from="start2" to="end1" depart="4097.930565" />
    <trip id="start2Toend1_110" type="connected" color="1,1,0" from="start2" to="end1" depart="4119.828491" />
    <trip id="start2Toend1_111" type="connected" color="1,1,0" from="start2" to="end1" depart="4131.429457" />
    <trip id="start2Toend1_112" type="connected" color="1,1,0" from="start2" to="end1" depart="4132.139745" />
    <trip id="start1Toend1_97" type="connected" color="1,1,0" from="start1" to="end1" depart="4132.348890" />
    <trip id="start1Toend1_98" type="connected" color="1,1,0" from="start1" to="end1" depart="4149.764951" />
    <trip id="start2Toend1_113" type="connected" color="1,1,0" from="start2" to="end1" depart="4150.533403" />
    <trip id="start2Toend1_114" type="connected" color="1,1,0" from="start2" to="end1" depart="4153.544919" />
    <trip id="start2Toend1_115" type="connected" color="1,1,0" from="start2" to="end1" depart="4154.858556" />
    <trip id="start2Toend1_116" type="connected" color="1,1,0" from="start2" to="end1" depart="4172.734597" />
    <trip id="start1Toend1_99" type="connected" color="1,1,0" from="start1" to="end1" depart="4174.143191" />
    <trip id="start1Toend1_100" type="connected" color="1,1,0" from="start1" to="end1" depart="4187.556342" />
    <trip id="start1Toend1_101" type="connected" color="1,1,0" from="start1" to="end1" depart="4192.624260" />
    <trip id="start1Toend1_102" type="connected" color="1,1,0" from="start1" to="end1" depart="4245.242661" />
    <trip id="start1Toend1_103" type="connected" color="1,1,0" from="start1" to="end1" depart="4258.482813" />
    <trip id="start2Toend1_117" type="connected" color="1,1,0" from="start2" to="end1" depart="4265.109122" />
    <trip id="start2Toend1_118" type="connected" color="1,1,0" from="start2" to="end1" depart="4279.858421" />
    <trip id="start2Toend1_119" type="connected" color="1,1,0" from="start2" to="end1" depart="4293.663690" />
    <trip id="start2Toend1_120" type="connected" color="1,1,0" from="start2" to="end1" depart="4320.651677" />
    <trip id="start2Toend1_121" type="connected" color="1,1,0" from="start2" to="end1" depart="4323.377177" />
    <trip id="start2Toend1_122" type="connected" color="1,1,0" from="start2" to="end1" depart="4331.823860" />
    <trip id="start2Toend1_123" type="connected" color="1,1,0" from="start2" to="end1" depart="4369.933162" />
    <trip id="start2Toend1_124" type="connected" color="1,1,0" from="start2" to="end1" depart="4391.422691" />
    <trip id="start1Toend1_104" type="connected" color="1,1,0" from="start1" to="end1" depart="4398.448954" />
    <trip id="start1Toend1_105" type="connected" color="1,1,0" from="start1" to="end1" depart="4405.998012" />
    <trip id="start1Toend1_106" type="connected" color="1,1,0" from="start1" to="end1" depart="4420.930371" />
    <trip id="start1Toend1_107" type="connected" color="1,1,0" from="start1" to="end1" depart="4434.293180" />
    <trip id="start1Toend1_108" type="connected" color="1,1,0" from="start1" to="end1" depart="4435.705606" />
    <trip id="start2Toend1_125" type="connected" color="1,1,0" from="start2" to="end1" depart="4446.640836" />
    <trip id="start1Toend1_109" type="connected" color="1,1,0" from="start1" to="end1" depart="4457.685247" />
    <trip id="start1Toend1_110" type="connected" color="1,1,0" from="start1" to="end1" depart="4461.515516" />
    <trip id="start2Toend1_126" type="connected" color="1,1,0" from="start2" to="end1" depart="4488.567582" />
    <trip id="start2Toend1_127" type="connected" color="1,1,0" from="start2" to="end1" depart="4513.661861" />
    <trip id="start1Toend1_111" type="connected" color="1,1,0" from="start1" to="end1" depart="4530.471014" />
    <trip id="start2Toend1_128" type="connected" color="1,1,0" from="start2" to="end1" depart="4540.856363" />
    <trip id="start1Toend1_112" type="connected" color="1,1,0" from="start1" to="end1" depart="4563.671804" />
    <trip id="start2Toend1_129" type="connected" color="1,1,0" from="start2" to="end1" depart="4565.534000" />
    <trip id="start2Toend1_130" type="connected" color="1,1,0" from="start2" to="end1" depart="4573.547934" />
    <trip id="start2Toend1_131" type="connected" color="1,1,0" from="start2" to="end1" depart="4577.849788" />
    <trip id="start1Toend1_113" type="connected" color="1,1,0" from="start1" to="end1" depart="4585.240663" />
    <trip id="start1Toend1_114" type="connected" color="1,1,0" from="start1" to="end1" depart="4597.668475" />
    <trip id="start2Toend1_132" type="connected" color="1,1,0" from="start2" to="end1" depart="4599.946607" />
    <trip id="start2Toend1_133" type="connected" color="1,1,0" from="start2" to="end1" depart="4611.385591" />
    <trip id="start1Toend1_115" type="connected" color="1,1,0" from="start1" to="end1" depart="4612.687958" />
    <trip id="start2Toend1_134" type="connected" color="1,1,0" from="start2" to="end1" depart="4624.811114" />
    <trip id="start2Toend1_135" type="connected" color="1,1,0" from="start2" to="end1" depart="4645.733660" />
    <trip id="start2Toend1_136" type="connected" color="1,1,0" from="start2" to="end1" depart="4651.564877" />
    <trip id="start1Toend1_116" type="connected" color="1,1,0" from="start1" to="end1" depart="4654.856915" />
    <trip id="start1Toend1_117" type="connected" color="1,1,0" from="start1" to="end1" depart="4664.963739" />
    <trip id="start1Toend1_118" type="connected" color="1,1,0" from="start1" to="end1" depart="4703.718741" />
    <trip id="start1Toend1_119" type="connected" color="1,1,0" from="start1" to="end1" depart="4704.673212" />
    <trip id="start1Toend1_120" type="connected" color="1,1,0" from="start1" to="end1" depart="4709.294972" />
    <trip id="start1Toend1_121" type="connected" color="1,1,0" from="start1" to="end1" depart="4724.843987" />
    <trip id="start1Toend1_122" type="connected" color="1,1,0" from="start1" to="end1" depart="4734.685613" />
    <trip id="start1Toend1_123" type="connected" color="1,1,0" from="start1" to="end1" depart="4736.235899" />