<?xml version="1.0" encoding="UTF-8"?>

<routes>

	<route id="route0" edges="start1 end1" />
    <route id="route2" edges="start2 end1" />


    <vType id="conventional" vClass="passenger" sigma="1" maxSpeed="40.0" color="red" accel="10.0"/>
    <vType id="connected" vClass="passenger" tau="1.3" maxSpeed="28.00" lcCooperative="0.0" color="1,1,0" lcStrategic="1.0" accel="3.0" decel="1.5" emergencyDecel="4.5" lcSpeedGain="0.3" sigma="0.0" lcKeepRight="0.3"/>
    <vType id="connected_pCatchupFollower" vClass="passenger" emergencyDecel="4.5" length="5" tau="0.1" maxSpeed="28.00" color="1,1,0" accel="10.3" decel="1.7" sigma="0.0" minGap="2.0"/>
    <vType id="connected_pCatchup" vClass="passenger" tau="0.1" emergencyDecel="4.5" maxSpeed="28.00" color="0,0.8,0.3" accel="10.3" decel="1.7" sigma="0.0" minGap="2.0"/>
    <vType id="connected_pFollower" vClass="passenger" tau="0.1" maxSpeed="28.00" color="1,1,0" accel="10.3" decel="1.7" sigma="0.0"  minGap="2.0" emergencyDecel="4.5"/>
    <vType id="connected_pLeader" vClass="passenger" length="5" tau="1.3" maxSpeed="28.00" lcCooperative="0.0" color="1,1,0" lcStrategic="1.0" accel="2.0" decel="1.5" emergencyDecel="4.5" lcSpeedGain="0.3" sigma="0.0" lcKeepRight="0.3"/>
    


	
    <trip id="start1Toend1_0" type="connected" color="1,1,0" from="start1" to="end1" depart="0.000000" />
    <trip id="start2Toend1_0" type="connected" color="1,1,0" from="start2" to="end1" depart="0.000000" />
    <trip id="start2Toend1_1" type="connected" color="1,1,0" from="start2" to="end1" depart="22.352782" />
    <trip id="start2Toend1_2" type="connected" color="1,1,0" from="start2" to="end1" depart="23.901646" />
    <trip id="start2Toend1_3" type="connected" color="1,1,0" from="start2" to="end1" depart="104.584577" />
    <trip id="start1Toend1_1" type="connected" color="1,1,0" from="start1" to="end1" depart="119.005319" />
    <trip id="start1Toend1_2" type="connected" color="1,1,0" from="start1" to="end1" depart="159.006113" />
    <trip id="start2Toend1_4" type="connected" color="1,1,0" from="start2" to="end1" depart="304.865376" />
    <trip id="start1Toend1_3" type="connected" color="1,1,0" from="start1" to="end1" depart="323.430368" />
    <trip id="start2Toend1_5" type="connected" color="1,1,0" from="start2" to="end1" depart="329.800286" />
    <trip id="start1Toend1_4" type="connected" color="1,1,0" from="start1" to="end1" depart="343.931311" />
    <trip id="start1Toend1_5" type="connected" color="1,1,0" from="start1" to="end1" depart="530.467123" />
    <trip id="start1Toend1_6" type="connected" color="1,1,0" from="start1" to="end1" depart="549.004500" />
    <trip id="start1Toend1_7" type="connected" color="1,1,0" from="start1" to="end1" depart="613.337535" />
    <trip id="start1Toend1_8" type="connected" color="1,1,0" from="start1" to="end1" depart="674.918274" />
    <trip id="start2Toend1_6" type="connected" color="1,1,0" from="start2" to="end1" depart="780.984611" />
    <trip id="start2Toend1_7" type="connected" color="1,1,0" from="start2" to="end1" depart="799.291887" />
    <trip id="start2Toend1_8" type="connected" color="1,1,0" from="start2" to="end1" depart="812.358254" />
    <trip id="start2Toend1_9" type="connected" color="1,1,0" from="start2" to="end1" depart="844.584723" />
    <trip id="start1Toend1_9" type="connected" color="1,1,0" from="start1" to="end1" depart="1033.359943" />
    <trip id="start2Toend1_10" type="connected" color="1,1,0" from="start2" to="end1" depart="1111.726035" />
    <trip id="start2Toend1_11" type="connected" color="1,1,0" from="start2" to="end1" depart="1171.814860" />
    <trip id="start2Toend1_12" type="connected" color="1,1,0" from="start2" to="end1" depart="1451.784013" />
    <trip id="start1Toend1_10" type="connected" color="1,1,0" from="start1" to="end1" depart="1461.011820" />
    <trip id="start2Toend1_13" type="connected" color="1,1,0" from="start2" to="end1" depart="1533.381699" />
    <trip id="start2Toend1_14" type="connected" color="1,1,0" from="start2" to="end1" depart="1588.164436" />
    <trip id="start1Toend1_11" type="connected" color="1,1,0" from="start1" to="end1" depart="1599.256732" />
    <trip id="start1Toend1_12" type="connected" color="1,1,0" from="start1" to="end1" depart="1636.885311" />
    <trip id="start1Toend1_13" type="connected" color="1,1,0" from="start1" to="end1" depart="1670.141814" />
    <trip id="start1Toend1_14" type="connected" color="1,1,0" from="start1" to="end1" depart="1693.189875" />
    <trip id="start1Toend1_15" type="connected" color="1,1,0" from="start1" to="end1" depart="1697.868023" />
    <trip id="start1Toend1_16" type="connected" color="1,1,0" from="start1" to="end1" depart="1733.681958" />
    <trip id="start2Toend1_15" type="connected" color="1,1,0" from="start2" to="end1" depart="1755.486312" />
    <trip id="start2Toend1_16" type="connected" color="1,1,0" from="start2" to="end1" depart="1764.587149" />
    <trip id="start1Toend1_17" type="connected" color="1,1,0" from="start1" to="end1" depart="1764.679816" />
    <trip id="start1Toend1_18" type="connected" color="1,1,0" from="start1" to="end1" depart="1860.327415" />
    <trip id="start1Toend1_19" type="connected" color="1,1,0" from="start1" to="end1" depart="1884.594873" />
    <trip id="start1Toend1_20" type="connected" color="1,1,0" from="start1" to="end1" depart="1906.287467" />
    <trip id="start1Toend1_21" type="connected" color="1,1,0" from="start1" to="end1" depart="1919.606051" />
    <trip id="start2Toend1_17" type="connected" color="1,1,0" from="start2" to="end1" depart="1931.386659" />
    <trip id="start1Toend1_22" type="connected" color="1,1,0" from="start1" to="end1" depart="2026.874389" />
    <trip id="start2Toend1_18" type="connected" color="1,1,0" from="start2" to="end1" depart="2081.764253" />
    <trip id="start2Toend1_19" type="connected" color="1,1,0" from="start2" to="end1" depart="2130.863158" />
    <trip id="start1Toend1_23" type="connected" color="1,1,0" from="start1" to="end1" depart="2162.328418" />
    <trip id="start1Toend1_24" type="connected" color="1,1,0" from="start1" to="end1" depart="2168.067191" />
    <trip id="start1Toend1_25" type="connected" color="1,1,0" from="start1" to="end1" depart="2205.888236" />
    <trip id="start1Toend1_26" type="connected" color="1,1,0" from="start1" to="end1" depart="2215.078426" />
    <trip id="start2Toend1_20" type="connected" color="1,1,0" from="start2" to="end1" depart="2249.051576" />
    <trip id="start2Toend1_21" type="connected" color="1,1,0" from="start2" to="end1" depart="2332.897673" />
    <trip id="start2Toend1_22" type="connected" color="1,1,0" from="start2" to="end1" depart="2334.831250" />
    <trip id="start1Toend1_27" type="connected" color="1,1,0" from="start1" to="end1" depart="2342.435542" />
    <trip id="start2Toend1_23" type="connected" color="1,1,0" from="start2" to="end1" depart="2384.955793" />
    <trip id="start2Toend1_24" type="connected" color="1,1,0" from="start2" to="end1" depart="2387.453893" />
    <trip id="start2Toend1_25" type="connected" color="1,1,0" from="start2" to="end1" depart="2434.628380" />
    <trip id="start2Toend1_26" type="connected" color="1,1,0" from="start2" to="end1" depart="2446.036029" />
    <trip id="start2Toend1_27" type="connected" color="1,1,0" from="start2" to="end1" depart="2495.625854" />
    <trip id="start2Toend1_28" type="connected" color="1,1,0" from="start2" to="end1" depart="2588.141094" />
    <trip id="start1Toend1_28" type="connected" color="1,1,0" from="start1" to="end1" depart="2610.499677" />
    <trip id="start2Toend1_29" type="connected" color="1,1,0" from="start2" to="end1" depart="2656.866357" />
    <trip id="start1Toend1_29" type="connected" color="1,1,0" from="start1" to="end1" depart="2686.649285" />
    <trip id="start2Toend1_30" type="connected" color="1,1,0" from="start2" to="end1" depart="2754.575936" />
    <trip id="start2Toend1_31" type="connected" color="1,1,0" from="start2" to="end1" depart="2859.445739" />
    <trip id="start2Toend1_32" type="connected" color="1,1,0" from="start2" to="end1" depart="2918.600029" />
    <trip id="start2Toend1_33" type="connected" color="1,1,0" from="start2" to="end1" depart="2918.979653" />
    <trip id="start2Toend1_34" type="connected" color="1,1,0" from="start2" to="end1" depart="3034.833272" />
    <trip id="start2Toend1_35" type="connected" color="1,1,0" from="start2" to="end1" depart="3057.604239" />
    <trip id="start1Toend1_30" type="connected" color="1,1,0" from="start1" to="end1" depart="3061.890952" />
    <trip id="start2Toend1_36" type="connected" color="1,1,0" from="start2" to="end1" depart="3106.746482" />
    <trip id="start1Toend1_31" type="connected" color="1,1,0" from="start1" to="end1" depart="3134.493701" />
    <trip id="start1Toend1_32" type="connected" color="1,1,0" from="start1" to="end1" depart="3289.524029" />
    <trip id="start1Toend1_33" type="connected" color="1,1,0" from="start1" to="end1" depart="3322.021004" />
    <trip id="start2Toend1_37" type="connected" color="1,1,0" from="start2" to="end1" depart="3386.845673" />
    <trip id="start2Toend1_38" type="connected" color="1,1,0" from="start2" to="end1" depart="3586.734383" />
    <trip id="start1Toend1_34" type="connected" color="1,1,0" from="start1" to="end1" depart="3740.842322" />
    <trip id="start2Toend1_39" type="connected" color="1,1,0" from="start2" to="end1" depart="3797.099195" />
    <trip id="start1Toend1_35" type="connected" color="1,1,0" from="start1" to="end1" depart="3832.475245" />
    <trip id="start1Toend1_36" type="connected" color="1,1,0" from="start1" to="end1" depart="3979.235282" />
    <trip id="start1Toend1_37" type="connected" color="1,1,0" from="start1" to="end1" depart="4023.400489" />
    <trip id="start2Toend1_40" type="connected" color="1,1,0" from="start2" to="end1" depart="4050.478726" />
    <trip id="start1Toend1_38" type="connected" color="1,1,0" from="start1" to="end1" depart="4138.002725" />
    <trip id="start1Toend1_39" type="connected" color="1,1,0" from="start1" to="end1" depart="4182.508035" />
    <trip id="start2Toend1_41" type="connected" color="1,1,0" from="start2" to="end1" depart="4254.563815" />
    <trip id="start2Toend1_42" type="connected" color="1,1,0" from="start2" to="end1" depart="4281.962953" />
    <trip id="start2Toend1_43" type="connected" color="1,1,0" from="start2" to="end1" depart="4325.750681" />
    <trip id="start1Toend1_40" type="connected" color="1,1,0" from="start1" to="end1" depart="4326.427934" />
    <trip id="start2Toend1_44" type="connected" color="1,1,0" from="start2" to="end1" depart="4474.384530" />
    <trip id="start1Toend1_41" type="connected" color="1,1,0" from="start1" to="end1" depart="4598.005196" />
    <trip id="start2Toend1_45" type="connected" color="1,1,0" from="start2" to="end1" depart="4634.467933" />
    <trip id="start2Toend1_46" type="connected" color="1,1,0" from="start2" to="end1" depart="4643.099615" />
    <trip id="start1Toend1_42" type="connected" color="1,1,0" from="start1" to="end1" depart="4651.234907" />
    <trip id="start2Toend1_47" type="connected" color="1,1,0" from="start2" to="end1" depart="4668.218966" />
    <trip id="start2Toend1_48" type="connected" color="1,1,0" from="start2" to="end1" depart="4695.070790" />
    <trip id="start1Toend1_43" type="connected" color="1,1,0" from="start1" to="end1" depart="4796.641198" />
    <trip id="start1Toend1_44" type="connected" color="1,1,0" from="start1" to="end1" depart="4818.207695" />
    <trip id="start1Toend1_45" type="connected" color="1,1,0" from="start1" to="end1" depart="4835.106012" />
    <trip id="start2Toend1_49" type="connected" color="1,1,0" from="start2" to="end1" depart="4870.225949" />
    <trip id="start2Toend1_50" type="connected" color="1,1,0" from="start2" to="end1" depart="4929.271719" />
    <trip id="start1Toend1_46" type="connected" color="1,1,0" from="start1" to="end1" depart="4953.380977" />
    <trip id="start1Toend1_47" type="connected" color="1,1,0" from="start1" to="end1" depart="4957.269102" />
    <trip id="start2Toend1_51" type="connected" color="1,1,0" from="start2" to="end1" depart="4983.186134" />
    <trip id="start1Toend1_48" type="connected" color="1,1,0" from="start1" to="end1" depart="5055.113768" />
    <trip id="start2Toend1_52" type="connected" color="1,1,0" from="start2" to="end1" depart="5060.109901" />
    <trip id="start1Toend1_49" type="connected" color="1,1,0" from="start1" to="end1" depart="5080.446370" />
    <trip id="start2Toend1_53" type="connected" color="1,1,0" from="start2" to="end1" depart="5184.779589" />
    <trip id="start2Toend1_54" type="connected" color="1,1,0" from="start2" to="end1" depart="5214.026699" />
    <trip id="start1Toend1_50" type="connected" color="1,1,0" from="start1" to="end1" depart="5273.699076" />
    <trip id="start1Toend1_51" type="connected" color="1,1,0" from="start1" to="end1" depart="5292.752791" />
    <trip id="start1Toend1_52" type="connected" color="1,1,0" from="start1" to="end1" depart="5319.322520" />
    <trip id="start1Toend1_53" type="connected" color="1,1,0" from="start1" to="end1" depart="5329.023749" />
    <trip id="start1Toend1_54" type="connected" color="1,1,0" from="start1" to="end1" depart="5372.271576" />
    <trip id="start2Toend1_55" type="connected" color="1,1,0" from="start2" to="end1" depart="5386.530026" />
    <trip id="start1Toend1_55" type="connected" color="1,1,0" from="start1" to="end1" depart="5425.692054" />
    <trip id="start1Toend1_56" type="connected" color="1,1,0" from="start1" to="end1" depart="5539.040332" />
    <trip id="start1Toend1_57" type="connected" color="1,1,0" from="start1" to="end1" depart="5556.199222" />
    <trip id="start1Toend1_58" type="connected" color="1,1,0" from="start1" to="end1" depart="5746.991397" />
    <trip id="start2Toend1_56" type="connected" color="1,1,0" from="start2" to="end1" depart="5763.175005" />
    <trip id="start2Toend1_57" type="connected" color="1,1,0" from="start2" to="end1" depart="5791.422295" />
    <trip id="start1Toend1_59" type="connected" color="1,1,0" from="start1" to="end1" depart="5800.747035" />
    <trip id="start1Toend1_60" type="connected" color="1,1,0" from="start1" to="end1" depart="5864.334951" />
    <trip id="start2Toend1_58" type="connected" color="1,1,0" from="start2" to="end1" depart="5889.679459" />
    <trip id="start2Toend1_59" type="connected" color="1,1,0" from="start2" to="end1" depart="5936.924367" />
    <trip id="start1Toend1_61" type="connected" color="1,1,0" from="start1" to="end1" depart="6011.517808" />
    <trip id="start1Toend1_62" type="connected" color="1,1,0" from="start1" to="end1" depart="6033.090976" />
    <trip id="start1Toend1_63" type="connected" color="1,1,0" from="start1" to="end1" depart="6036.919139" />
    <trip id="start1Toend1_64" type="connected" color="1,1,0" from="start1" to="end1" depart="6054.461454" />
    <trip id="start2Toend1_60" type="connected" color="1,1,0" from="start2" to="end1" depart="6119.999284" />
    <trip id="start2Toend1_61" type="connected" color="1,1,0" from="start2" to="end1" depart="6251.057604" />
    <trip id="start2Toend1_62" type="connected" color="1,1,0" from="start2" to="end1" depart="6260.903927" />
    <trip id="start1Toend1_65" type="connected" color="1,1,0" from="start1" to="end1" depart="6370.470402" />
    <trip id="start2Toend1_63" type="connected" color="1,1,0" from="start2" to="end1" depart="6386.253325" />
    <trip id="start2Toend1_64" type="connected" color="1,1,0" from="start2" to="end1" depart="6396.120291" />
    <trip id="start2Toend1_65" type="connected" color="1,1,0" from="start2" to="end1" depart="6419.845956" />
    <trip id="start1Toend1_66" type="connected" color="1,1,0" from="start1" to="end1" depart="6426.201146" />
    <trip id="start2Toend1_66" type="connected" color="1,1,0" from="start2" to="end1" depart="6432.096256" />
    <trip id="start1Toend1_67" type="connected" color="1,1,0" from="start1" to="end1" depart="6456.560954" />
    <trip id="start1Toend1_68" type="connected" color="1,1,0" from="start1" to="end1" depart="6507.193723" />
    <trip id="start2Toend1_67" type="connected" color="1,1,0" from="start2" to="end1" depart="6530.434131" />
    <trip id="start2Toend1_68" type="connected" color="1,1,0" from="start2" to="end1" depart="6537.071338" />
    <trip id="start2Toend1_69" type="connected" color="1,1,0" from="start2" to="end1" depart="6569.025480" />
    <trip id="start2Toend1_70" type="connected" color="1,1,0" from="start2" to="end1" depart="6574.731243" />
    <trip id="start1Toend1_69" type="connected" color="1,1,0" from="start1" to="end1" depart="6607.988729" />
    <trip id="start1Toend1_70" type="connected" color="1,1,0" from="start1" to="end1" depart="6620.364148" />
    <trip id="start1Toend1_71" type="connected" color="1,1,0" from="start1" to="end1" depart="6627.159550" />
    <trip id="start2Toend1_71" type="connected" color="1,1,0" from="start2" to="end1" depart="6674.176704" />
    <trip id="start1Toend1_72" type="connected" color="1,1,0" from="start1" to="end1" depart="6704.438676" />
    <trip id="start1Toend1_73" type="connected" color="1,1,0" from="start1" to="end1" depart="6934.593943" />
    <trip id="start1Toend1_74" type="connected" color="1,1,0" from="start1" to="end1" depart="6971.512630" />
    <trip id="start2Toend1_72" type="connected" color="1,1,0" from="start2" to="end1" depart="7075.269486" />
    <trip id="start2Toend1_73" type="connected" color="1,1,0" from="start2" to="end1" depart="7129.413882" />
    <trip id="start2Toend1_74" type="connected" color="1,1,0" from="start2" to="end1" depart="7215.662375" />
    <trip id="start1Toend1_75" type="connected" color="1,1,0" from="start1" to="end1" depart="7285.999696" />
    <trip id="start2Toend1_75" type="connected" color="1,1,0" from="start2" to="end1" depart="7329.963336" />
    <trip id="start2Toend1_76" type="connected" color="1,1,0" from="start2" to="end1" depart="7351.950626" />
    <trip id="start2Toend1_77" type="connected" color="1,1,0" from="start2" to="end1" depart="7368.347669" />
    <trip id="start1Toend1_76" type="connected" color="1,1,0" from="start1" to="end1" depart="7392.806514" />
    <trip id="start2Toend1_78" type="connected" color="1,1,0" from="start2" to="end1" depart="7420.529940" />
    <trip id="start1Toend1_77" type="connected" color="1,1,0" from="start1" to="end1" depart="7422.353905" />
    <trip id="start2Toend1_79" type="connected" color="1,1,0" from="start2" to="end1" depart="7453.081762" />
    <trip id="start1Toend1_78" type="connected" color="1,1,0" from="start1" to="end1" depart="7479.277879" />
    <trip id="start2Toend1_80" type="connected" color="1,1,0" from="start2" to="end1" depart="7527.318119" />
    <trip id="start2Toend1_81" type="connected" color="1,1,0" from="start2" to="end1" depart="7583.357278" />
    <trip id="start1Toend1_79" type="connected" color="1,1,0" from="start1" to="end1" depart="7597.898082" />
    <trip id="start1Toend1_80" type="connected" color="1,1,0" from="start1" to="end1" depart="7613.590413" />
    <trip id="start2Toend1_82" type="connected" color="1,1,0" from="start2" to="end1" depart="7645.972096" />
    <trip id="start2Toend1_83" type="connected" color="1,1,0" from="start2" to="end1" depart="7695.632371" />
    <trip id="start1Toend1_81" type="connected" color="1,1,0" from="start1" to="end1" depart="7792.412895" />
    <trip id="start2Toend1_84" type="connected" color="1,1,0" from="start2" to="end1" depart="7797.508529" />
    <trip id="start1Toend1_82" type="connected" color="1,1,0" from="start1" to="end1" depart="7924.006012" />
    <trip id="start2Toend1_85" type="connected" color="1,1,0" from="start2" to="end1" depart="7991.291527" />
    <trip id="start1Toend1_83" type="connected" color="1,1,0" from="start1" to="end1" depart="8008.501008" />
    <trip id="start2Toend1_86" type="connected" color="1,1,0" from="start2" to="end1" depart="8146.771846" />
    <trip id="start1Toend1_84" type="connected" color="1,1,0" from="start1" to="end1" depart="8256.176750" />
    <trip id="start1Toend1_85" type="connected" color="1,1,0" from="start1" to="end1" depart="8293.923025" />
    <trip id="start1Toend1_86" type="connected" color="1,1,0" from="start1" to="end1" depart="8334.516284" />
    <trip id="start1Toend1_87" type="connected" color="1,1,0" from="start1" to="end1" depart="8335.076401" />
    <trip id="start1Toend1_88" type="connected" color="1,1,0" from="start1" to="end1" depart="8353.461682" />
    <trip id="start1Toend1_89" type="connected" color="1,1,0" from="start1" to="end1" depart="8388.098141" />
    <trip id="start2Toend1_87" type="connected" color="1,1,0" from="start2" to="end1" depart="8494.890174" />
    <trip id="start1Toend1_90" type="connected" color="1,1,0" from="start1" to="end1" depart="8535.675543" />
    <trip id="start1Toend1_91" type="connected" color="1,1,0" from="start1" to="end1" depart="8630.969723" />
    <trip id="start2Toend1_88" type="connected" color="1,1,0" from="start2" to="end1" depart="8673.874370" />
    <trip id="start1Toend1_92" type="connected" color="1,1,0" from="start1" to="end1" depart="8774.155613" />
    <trip id="start1Toend1_93" type="connected" color="1,1,0" from="start1" to="end1" depart="8781.367472" />
    <trip id="start2Toend1_89" type="connected" color="1,1,0" from="start2" to="end1" depart="8784.855254" />
    <trip id="start2Toend1_90" type="connected" color="1,1,0" from="start2" to="end1" depart="8793.987068" />
    <trip id="start1Toend1_94" type="connected" color="1,1,0" from="start1" to="end1" depart="8821.572862" />
    <trip id="start2Toend1_91" type="connected" color="1,1,0" from="start2" to="end1" depart="8828.539343" />
    <trip id="start2Toend1_92" type="connected" color="1,1,0" from="start2" to="end1" depart="8829.631787" />
    <trip id="start1Toend1_95" type="connected" color="1,1,0" from="start1" to="end1" depart="8851.125074" />
    <trip id="start1Toend1_96" type="connected" color="1,1,0" from="start1" to="end1" depart="8989.819212" />
    <trip id="start2Toend1_93" type="connected" color="1,1,0" from="start2" to="end1" depart="9088.106808" />
    <trip id="start1Toend1_97" type="connected" color="1,1,0" from="start1" to="end1" depart="9088.122650" />
    <trip id="start1Toend1_98" type="connected" color="1,1,0" from="start1" to="end1" depart="9118.915194" />
    <trip id="start2Toend1_94" type="connected" color="1,1,0" from="start2" to="end1" depart="9163.482238" />
    <trip id="start2Toend1_95" type="connected" color="1,1,0" from="start2" to="end1" depart="9188.330051" />
    <trip id="start2Toend1_96" type="connected" color="1,1,0" from="start2" to="end1" depart="9289.236907" />
    <trip id="start1Toend1_99" type="connected" color="1,1,0" from="start1" to="end1" depart="9314.395048" />
    <trip id="start1Toend1_100" type="connected" color="1,1,0" from="start1" to="end1" depart="9317.740339" />
    <trip id="start2Toend1_97" type="connected" color="1,1,0" from="start2" to="end1" depart="9548.484147" />
    <trip id="start1Toend1_101" type="connected" color="1,1,0" from="start1" to="end1" depart="9666.241991" />
    <trip id="start2Toend1_98" type="connected" color="1,1,0" from="start2" to="end1" depart="9703.377524" />
    <trip id="start2Toend1_99" type="connected" color="1,1,0" from="start2" to="end1" depart="9722.737956" />
    <trip id="start2Toend1_100" type="connected" color="1,1,0" from="start2" to="end1" depart="9748.743911" />
    <trip id="start2Toend1_101" type="connected" color="1,1,0" from="start2" to="end1" depart="9781.346801" />
    <trip id="start2Toend1_102" type="connected" color="1,1,0" from="start2" to="end1" depart="9873.492470" />
    <trip id="start2Toend1_103" type="connected" color="1,1,0" from="start2" to="end1" depart="9938.697408" />
    <trip id="start2Toend1_104" type="connected" color="1,1,0" from="start2" to="end1" depart="9965.658437" />
    <trip id="start2Toend1_105" type="connected" color="1,1,0" from="start2" to="end1" depart="10067.419260" />
    <trip id="start2Toend1_106" type="connected" color="1,1,0" from="start2" to="end1" depart="10130.183082" />
    <trip id="start2Toend1_107" type="connected" color="1,1,0" from="start2" to="end1" depart="10161.699377" />
    <trip id="start1Toend1_102" type="connected" color="1,1,0" from="start1" to="end1" depart="10172.318150" />
    <trip id="start1Toend1_103" type="connected" color="1,1,0" from="start1" to="end1" depart="10183.382962" />
    <trip id="start2Toend1_108" type="connected" color="1,1,0" from="start2" to="end1" depart="10221.891797" />
    <trip id="start1Toend1_104" type="connected" color="1,1,0" from="start1" to="end1" depart="10261.437037" />
    <trip id="start2Toend1_109" type="connected" color="1,1,0" from="start2" to="end1" depart="10271.711419" />
    <trip id="start1Toend1_105" type="connected" color="1,1,0" from="start1" to="end1" depart="10319.031570" />
    <trip id="start1Toend1_106" type="connected" color="1,1,0" from="start1" to="end1" depart="10332.253816" />
    <trip id="start1Toend1_107" type="connected" color="1,1,0" from="start1" to="end1" depart="10363.357170" />
    <trip id="start1Toend1_108" type="connected" color="1,1,0" from="start1" to="end1" depart="10366.903009" />
    <trip id="start2Toend1_110" type="connected" color="1,1,0" from="start2" to="end1" depart="10471.324983" />
    <trip id="start2Toend1_111" type="connected" color="1,1,0" from="start2" to="end1" depart="10498.509009" />
    <trip id="start1Toend1_109" type="connected" color="1,1,0" from="start1" to="end1" depart="10515.548449" />
    <trip id="start1Toend1_110" type="connected" color="1,1,0" from="start1" to="end1" depart="10526.072942" />
    <trip id="start1Toend1_111" type="connected" color="1,1,0" from="start1" to="end1" depart="10620.402802" />
    <trip id="start1Toend1_112" type="connected" color="1,1,0" from="start1" to="end1" depart="10682.909058" />
    <trip id="start2Toend1_112" type="connected" color="1,1,0" from="start2" to="end1" depart="10696.294492" />
    <trip id="start2Toend1_113" type="connected" color="1,1,0" from="start2" to="end1" depart="10770.170454" />
    <trip id="start1Toend1_113" type="connected" color="1,1,0" from="start1" to="end1" depart="10839.475420" />
    <trip id="start1Toend1_114" type="connected" color="1,1,0" from="start1" to="end1" depart="10911.265700" />
    <trip id="start2Toend1_114" type="connected" color="1,1,0" from="start2" to="end1" depart="10979.048941" />
    <trip id="start1Toend1_115" type="connected" color="1,1,0" from="start1" to="end1" depart="10999.680908" />
    <trip id="start1Toend1_116" type="connected" color="1,1,0" from="start1" to="end1" depart="11085.582907" />
    <trip id="start2Toend1_115" type="connected" color="1,1,0" from="start2" to="end1" depart="11097.536001" />
    <trip id="start1Toend1_117" type="connected" color="1,1,0" from="start1" to="end1" depart="11119.900995" />
    <trip id="start1Toend1_118" type="connected" color="1,1,0" from="start1" to="end1" depart="11139.884580" />
    <trip id="start2Toend1_116" type="connected" color="1,1,0" from="start2" to="end1" depart="11221.325176" />
    <trip id="start2Toend1_117" type="connected" color="1,1,0" from="start2" to="end1" depart="11246.893983" />
    <trip id="start2Toend1_118" type="connected" color="1,1,0" from="start2" to="end1" depart="11250.388374" />
    <trip id="start1Toend1_119" type="connected" color="1,1,0" from="start1" to="end1" depart="11262.017419" />
    <trip id="start2Toend1_119" type="connected" color="1,1,0" from="start2" to="end1" depart="11320.920223" />
    <trip id="start2Toend1_120" type="connected" color="1,1,0" from="start2" to="end1" depart="11352.642250" />
    <trip id="start1Toend1_120" type="connected" color="1,1,0" from="start1" to="end1" depart="11388.570291" />
    <trip id="start2Toend1_121" type="connected" color="1,1,0" from="start2" to="end1" depart="11391.792898" />
    <trip id="start2Toend1_122" type="connected" color="1,1,0" from="start2" to="end1" depart="11413.130928" />
    <trip id="start2Toend1_123" type="connected" color="1,1,0" from="start2" to="end1" depart="11472.911664" />
    <trip id="start1Toend1_121" type="connected" color="1,1,0" from="start1" to="end1" depart="11507.282136" />
    <trip id="start2Toend1_124" type="connected" color="1,1,0" from="start2" to="end1" depart="11662.383399" />
    <trip id="start2Toend1_125" type="connected" color="1,1,0" from="start2" to="end1" depart="11671.224951" />
    <trip id="start1Toend1_122" type="connected" color="1,1,0" from="start1" to="end1" depart="11687.616138" />
    <trip id="start2Toend1_126" type="connected" color="1,1,0" from="start2" to="end1" depart="11694.052881" />
    <trip id="start2Toend1_127" type="connected" color="1,1,0" from="start2" to="end1" depart="11726.181473" />
    <trip id="start2Toend1_128" type="connected" color="1,1,0" from="start2" to="end1" depart="11754.155955" />
    <trip id="start1Toend1_123" type="connected" color="1,1,0" from="start1" to="end1" depart="11827.320501" />
    <trip id="start1Toend1_124" type="connected" color="1,1,0" from="start1" to="end1" depart="11911.111635" />
    <trip id="start2Toend1_129" type="connected" color="1,1,0" from="start2" to="end1" depart="11926.409181" />
    <trip id="start1Toend1_125" type="connected" color="1,1,0" from="start1" to="end1" depart="11953.148020" />
    <trip id="start2Toend1_130" type="connected" color="1,1,0" from="start2" to="end1" depart="11986.029299" />
    <trip id="start2Toend1_131" type="connected" color="1,1,0" from="start2" to="end1" depart="12023.368022" />
    <trip id="start2Toend1_132" type="connected" color="1,1,0" from="start2" to="end1" depart="12038.680080" />
    <trip id="start2Toend1_133" type="connected" color="1,1,0" from="start2" to="end1" depart="12063.137721" />