<?xml version="1.0" encoding="UTF-8"?>

<routes>

	<route id="route0" edges="start1 end1" />
    <route id="route2" edges="start2 end1" />


    <vType id="conventional" vClass="passenger" sigma="1" maxSpeed="40.0" color="red" accel="10.0"/>
    <vType id="connected" vClass="passenger" tau="1.3" maxSpeed="28.00" lcCooperative="0.0" color="1,1,0" lcStrategic="1.0" accel="3.0" decel="1.5" emergencyDecel="4.5" lcSpeedGain="0.3" sigma="0.0" lcKeepRight="0.3"/>
    <vType id="connected_pCatchupFollower" vClass="passenger" emergencyDecel="4.5" length="5" tau="0.1" maxSpeed="28.00" color="1,1,0" accel="10.3" decel="1.7" sigma="0.0" minGap="2.0"/>
    <vType id="connected_pCatchup" vClass="passenger" tau="0.1" emergencyDecel="4.5" maxSpeed="28.00" color="0,0.8,0.3" accel="10.3" decel="1.7" sigma="0.0" minGap="2.0"/>
    <vType id="connected_pFollower" vClass="passenger" tau="0.1" maxSpeed="28.00" color="1,1,0" accel="10.3" decel="1.7" sigma="0.0"  minGap="2.0" emergencyDecel="4.5"/>
    <vType id="connected_pLeader" vClass="passenger" length="5" tau="1.3" maxSpeed="28.00" lcCooperative="0.0" color="1,1,0" lcStrategic="1.0" accel="2.0" decel="1.5" emergencyDecel="4.5" lcSpeedGain="0.3" sigma="0.0" lcKeepRight="0.3"/>
    


	
    <trip id="start1Toend1_0" type="connected" color="1,1,0" from="start1" to="end1" depart="0.000000" />
    <trip id="start2Toend1_0" type="connected" color="1,1,0" from="start2" to="end1" depart="0.000000" />
    <trip id="start2Toend1_1" type="connected" color="1,1,0" from="start2" to="end1" depart="16.984425" />
    <trip id="start1Toend1_1" type="connected" color="1,1,0" from="start1" to="end1" depart="20.327280" />
    <trip id="start1Toend1_2" type="connected" color="1,1,0" from="start1" to="end1" depart="36.709945" />
    <trip id="start1Toend1_3" type="connected" color="1,1,0" from="start1" to="end1" depart="53.607278" />
    <trip id="start2Toend1_2" type="connected" color="1,1,0" from="start2" to="end1" depart="85.996532" />
    <trip id="start1Toend1_4" type="connected" color="1,1,0" from="start1" to="end1" depart="91.270751" />
    <trip id="start2Toend1_3" type="connected" color="1,1,0" from="start2" to="end1" depart="105.023881" />
    <trip id="start1Toend1_5" type="connected" color="1,1,0" from="start1" to="end1" depart="106.376138" />
    <trip id="start1Toend1_6" type="connected" color="1,1,0" from="start1" to="end1" depart="112.834431" />
    <trip id="start2Toend1_4" type="connected" color="1,1,0" from="start2" to="end1" depart="123.147821" />
    <trip id="start1Toend1_7" type="connected" color="1,1,0" from="start1" to="end1" depart="138.226505" />
    <trip id="start1Toend1_8" type="connected" color="1,1,0" from="start1" to="end1" depart="142.784920" />
    <trip id="start1Toend1_9" type="connected" color="1,1,0" from="start1" to="end1" depart="157.758830" />
    <trip id="start1Toend1_10" type="connected" color="1,1,0" from="start1" to="end1" depart="160.312679" />
    <trip id="start2Toend1_5" type="connected" color="1,1,0" from="start2" to="end1" depart="172.946722" />
    <trip id="start2Toend1_6" type="connected" color="1,1,0" from="start2" to="end1" depart="173.744648" />
    <trip id="start1Toend1_11" type="connected" color="1,1,0" from="start1" to="end1" depart="181.524391" />
    <trip id="start1Toend1_12" type="connected" color="1,1,0" from="start1" to="end1" depart="181.834811" />
    <trip id="start2Toend1_7" type="connected" color="1,1,0" from="start2" to="end1" depart="182.007041" />
    <trip id="start2Toend1_8" type="connected" color="1,1,0" from="start2" to="end1" depart="202.893999" />
    <trip id="start1Toend1_13" type="connected" color="1,1,0" from="start1" to="end1" depart="209.677669" />
    <trip id="start1Toend1_14" type="connected" color="1,1,0" from="start1" to="end1" depart="222.504316" />
    <trip id="start1Toend1_15" type="connected" color="1,1,0" from="start1" to="end1" depart="225.992311" />
    <trip id="start2Toend1_9" type="connected" color="1,1,0" from="start2" to="end1" depart="240.434699" />
    <trip id="start2Toend1_10" type="connected" color="1,1,0" from="start2" to="end1" depart="256.913426" />
    <trip id="start2Toend1_11" type="connected" color="1,1,0" from="start2" to="end1" depart="271.188056" />
    <trip id="start1Toend1_16" type="connected" color="1,1,0" from="start1" to="end1" depart="277.743624" />
    <trip id="start2Toend1_12" type="connected" color="1,1,0" from="start2" to="end1" depart="285.457401" />
    <trip id="start2Toend1_13" type="connected" color="1,1,0" from="start2" to="end1" depart="285.782808" />
    <trip id="start1Toend1_17" type="connected" color="1,1,0" from="start1" to="end1" depart="294.331957" />
    <trip id="start2Toend1_14" type="connected" color="1,1,0" from="start2" to="end1" depart="315.510746" />
    <trip id="start1Toend1_18" type="connected" color="1,1,0" from="start1" to="end1" depart="324.870401" />
    <trip id="start2Toend1_15" type="connected" color="1,1,0" from="start2" to="end1" depart="336.550850" />
    <trip id="start2Toend1_16" type="connected" color="1,1,0" from="start2" to="end1" depart="378.771807" />
    <trip id="start2Toend1_17" type="connected" color="1,1,0" from="start2" to="end1" depart="385.331194" />
    <trip id="start2Toend1_18" type="connected" color="1,1,0" from="start2" to="end1" depart="391.082363" />
    <trip id="start1Toend1_19" type="connected" color="1,1,0" from="start1" to="end1" depart="428.194979" />
    <trip id="start1Toend1_20" type="connected" color="1,1,0" from="start1" to="end1" depart="502.984394" />
    <trip id="start2Toend1_19" type="connected" color="1,1,0" from="start2" to="end1" depart="505.889670" />
    <trip id="start2Toend1_20" type="connected" color="1,1,0" from="start2" to="end1" depart="511.033184" />
    <trip id="start2Toend1_21" type="connected" color="1,1,0" from="start2" to="end1" depart="528.747026" />
    <trip id="start2Toend1_22" type="connected" color="1,1,0" from="start2" to="end1" depart="529.690151" />
    <trip id="start2Toend1_23" type="connected" color="1,1,0" from="start2" to="end1" depart="537.932907" />
    <trip id="start2Toend1_24" type="connected" color="1,1,0" from="start2" to="end1" depart="544.118195" />
    <trip id="start2Toend1_25" type="connected" color="1,1,0" from="start2" to="end1" depart="634.428628" />
    <trip id="start2Toend1_26" type="connected" color="1,1,0" from="start2" to="end1" depart="659.776143" />
    <trip id="start1Toend1_21" type="connected" color="1,1,0" from="start1" to="end1" depart="664.141854" />
    <trip id="start2Toend1_27" type="connected" color="1,1,0" from="start2" to="end1" depart="690.893518" />
    <trip id="start2Toend1_28" type="connected" color="1,1,0" from="start2" to="end1" depart="720.414099" />
    <trip id="start2Toend1_29" type="connected" color="1,1,0" from="start2" to="end1" depart="741.236683" />
    <trip id="start2Toend1_30" type="connected" color="1,1,0" from="start2" to="end1" depart="756.876753" />
    <trip id="start1Toend1_22" type="connected" color="1,1,0" from="start1" to="end1" depart="759.065163" />
    <trip id="start2Toend1_31" type="connected" color="1,1,0" from="start2" to="end1" depart="778.924966" />
    <trip id="start2Toend1_32" type="connected" color="1,1,0" from="start2" to="end1" depart="779.595434" />
    <trip id="start1Toend1_23" type="connected" color="1,1,0" from="start1" to="end1" depart="781.665795" />
    <trip id="start2Toend1_33" type="connected" color="1,1,0" from="start2" to="end1" depart="797.180199" />
    <trip id="start2Toend1_34" type="connected" color="1,1,0" from="start2" to="end1" depart="872.120207" />
    <trip id="start2Toend1_35" type="connected" color="1,1,0" from="start2" to="end1" depart="902.193507" />
    <trip id="start2Toend1_36" type="connected" color="1,1,0" from="start2" to="end1" depart="904.659452" />
    <trip id="start1Toend1_24" type="connected" color="1,1,0" from="start1" to="end1" depart="936.520853" />
    <trip id="start2Toend1_37" type="connected" color="1,1,0" from="start2" to="end1" depart="936.914164" />
    <trip id="start2Toend1_38" type="connected" color="1,1,0" from="start2" to="end1" depart="940.466387" />
    <trip id="start2Toend1_39" type="connected" color="1,1,0" from="start2" to="end1" depart="946.411086" />
    <trip id="start2Toend1_40" type="connected" color="1,1,0" from="start2" to="end1" depart="1009.022511" />
    <trip id="start1Toend1_25" type="connected" color="1,1,0" from="start1" to="end1" depart="1073.165417" />
    <trip id="start1Toend1_26" type="connected" color="1,1,0" from="start1" to="end1" depart="1121.666376" />
    <trip id="start1Toend1_27" type="connected" color="1,1,0" from="start1" to="end1" depart="1169.759723" />
    <trip id="start1Toend1_28" type="connected" color="1,1,0" from="start1" to="end1" depart="1183.195713" />
    <trip id="start2Toend1_41" type="connected" color="1,1,0" from="start2" to="end1" depart="1200.521005" />
    <trip id="start2Toend1_42" type="connected" color="1,1,0" from="start2" to="end1" depart="1212.133696" />
    <trip id="start2Toend1_43" type="connected" color="1,1,0" from="start2" to="end1" depart="1243.943961" />
    <trip id="start1Toend1_29" type="connected" color="1,1,0" from="start1" to="end1" depart="1277.684859" />
    <trip id="start2Toend1_44" type="connected" color="1,1,0" from="start2" to="end1" depart="1283.284270" />
    <trip id="start2Toend1_45" type="connected" color="1,1,0" from="start2" to="end1" depart="1321.084301" />
    <trip id="start1Toend1_30" type="connected" color="1,1,0" from="start1" to="end1" depart="1325.040849" />
    <trip id="start2Toend1_46" type="connected" color="1,1,0" from="start2" to="end1" depart="1359.670304" />
    <trip id="start1Toend1_31" type="connected" color="1,1,0" from="start1" to="end1" depart="1375.907089" />
    <trip id="start1Toend1_32" type="connected" color="1,1,0" from="start1" to="end1" depart="1376.760855" />
    <trip id="start2Toend1_47" type="connected" color="1,1,0" from="start2" to="end1" depart="1381.671025" />
    <trip id="start2Toend1_48" type="connected" color="1,1,0" from="start2" to="end1" depart="1383.457367" />
    <trip id="start2Toend1_49" type="connected" color="1,1,0" from="start2" to="end1" depart="1403.544458" />
    <trip id="start1Toend1_33" type="connected" color="1,1,0" from="start1" to="end1" depart="1416.995880" />
    <trip id="start1Toend1_34" type="connected" color="1,1,0" from="start1" to="end1" depart="1428.840627" />
    <trip id="start2Toend1_50" type="connected" color="1,1,0" from="start2" to="end1" depart="1439.124914" />
    <trip id="start1Toend1_35" type="connected" color="1,1,0" from="start1" to="end1" depart="1444.514963" />
    <trip id="start2Toend1_51" type="connected" color="1,1,0" from="start2" to="end1" depart="1499.509144" />
    <trip id="start2Toend1_52" type="connected" color="1,1,0" from="start2" to="end1" depart="1542.115555" />
    <trip id="start1Toend1_36" type="connected" color="1,1,0" from="start1" to="end1" depart="1559.627112" />
    <trip id="start2Toend1_53" type="connected" color="1,1,0" from="start2" to="end1" depart="1577.528632" />
    <trip id="start2Toend1_54" type="connected" color="1,1,0" from="start2" to="end1" depart="1608.338415" />
    <trip id="start1Toend1_37" type="connected" color="1,1,0" from="start1" to="end1" depart="1619.031695" />
    <trip id="start2Toend1_55" type="connected" color="1,1,0" from="start2" to="end1" depart="1619.135742" />
    <trip id="start2Toend1_56" type="connected" color="1,1,0" from="start2" to="end1" depart="1664.927588" />
    <trip id="start1Toend1_38" type="connected" color="1,1,0" from="start1" to="end1" depart="1682.737235" />
    <trip id="start2Toend1_57" type="connected" color="1,1,0" from="start2" to="end1" depart="1690.342921" />
    <trip id="start2Toend1_58" type="connected" color="1,1,0" from="start2" to="end1" depart="1700.476450" />
    <trip id="start2Toend1_59" type="connected" color="1,1,0" from="start2" to="end1" depart="1709.841827" />
    <trip id="start2Toend1_60" type="connected" color="1,1,0" from="start2" to="end1" depart="1709.937298" />
    <trip id="start1Toend1_39" type="connected" color="1,1,0" from="start1" to="end1" depart="1712.047753" />
    <trip id="start1Toend1_40" type="connected" color="1,1,0" from="start1" to="end1" depart="1715.820731" />
    <trip id="start1Toend1_41" type="connected" color="1,1,0" from="start1" to="end1" depart="1751.435869" />
    <trip id="start1Toend1_42" type="connected" color="1,1,0" from="start1" to="end1" depart="1768.042208" />
    <trip id="start1Toend1_43" type="connected" color="1,1,0" from="start1" to="end1" depart="1773.017275" />
    <trip id="start1Toend1_44" type="connected" color="1,1,0" from="start1" to="end1" depart="1784.352115" />
    <trip id="start1Toend1_45" type="connected" color="1,1,0" from="start1" to="end1" depart="1797.919936" />
    <trip id="start1Toend1_46" type="connected" color="1,1,0" from="start1" to="end1" depart="1810.313228" />
    <trip id="start1Toend1_47" type="connected" color="1,1,0" from="start1" to="end1" depart="1813.043725" />
    <trip id="start2Toend1_61" type="connected" color="1,1,0" from="start2" to="end1" depart="1814.074519" />
    <trip id="start1Toend1_48" type="connected" color="1,1,0" from="start1" to="end1" depart="1825.399132" />
    <trip id="start2Toend1_62" type="connected" color="1,1,0" from="start2" to="end1" depart="1833.382526" />
    <trip id="start2Toend1_63" type="connected" color="1,1,0" from="start2" to="end1" depart="1838.518933" />
    <trip id="start2Toend1_64" type="connected" color="1,1,0" from="start2" to="end1" depart="1863.076390" />
    <trip id="start2Toend1_65" type="connected" color="1,1,0" from="start2" to="end1" depart="1880.939799" />
    <trip id="start2Toend1_66" type="connected" color="1,1,0" from="start2" to="end1" depart="1889.370867" />
    <trip id="start1Toend1_49" type="connected" color="1,1,0" from="start1" to="end1" depart="1890.995281" />
    <trip id="start1Toend1_50" type="connected" color="1,1,0" from="start1" to="end1" depart="1897.223302" />
    <trip id="start1Toend1_51" type="connected" color="1,1,0" from="start1" to="end1" depart="1925.060629" />
    <trip id="start2Toend1_67" type="connected" color="1,1,0" from="start2" to="end1" depart="1931.646892" />
    <trip id="start2Toend1_68" type="connected" color="1,1,0" from="start2" to="end1" depart="1958.500162" />
    <trip id="start1Toend1_52" type="connected" color="1,1,0" from="start1" to="end1" depart="1970.669113" />
    <trip id="start1Toend1_53" type="connected" color="1,1,0" from="start1" to="end1" depart="1974.441758" />
    <trip id="start1Toend1_54" type="connected" color="1,1,0" from="start1" to="end1" depart="1976.526842" />
    <trip id="start2Toend1_69" type="connected" color="1,1,0" from="start2" to="end1" depart="1989.647074" />
    <trip id="start2Toend1_70" type="connected" color="1,1,0" from="start2" to="end1" depart="2009.901877" />
    <trip id="start1Toend1_55" type="connected" color="1,1,0" from="start1" to="end1" depart="2012.942550" />
    <trip id="start2Toend1_71" type="connected" color="1,1,0" from="start2" to="end1" depart="2027.305542" />
    <trip id="start1Toend1_56" type="connected" color="1,1,0" from="start1" to="end1" depart="2060.151966" />
    <trip id="start2Toend1_72" type="connected" color="1,1,0" from="start2" to="end1" depart="2075.719450" />
    <trip id="start2Toend1_73" type="connected" color="1,1,0" from="start2" to="end1" depart="2112.218986" />
    <trip id="start1Toend1_57" type="connected" color="1,1,0" from="start1" to="end1" depart="2117.661001" />
    <trip id="start1Toend1_58" type="connected" color="1,1,0" from="start1" to="end1" depart="2135.615681" />
    <trip id="start1Toend1_59" type="connected" color="1,1,0" from="start1" to="end1" depart="2161.820083" />
    <trip id="start1Toend1_60" type="connected" color="1,1,0" from="start1" to="end1" depart="2200.266962" />
    <trip id="start2Toend1_74" type="connected" color="1,1,0" from="start2" to="end1" depart="2220.120183" />
    <trip id="start1Toend1_61" type="connected" color="1,1,0" from="start1" to="end1" depart="2222.093257" />
    <trip id="start1Toend1_62" type="connected" color="1,1,0" from="start1" to="end1" depart="2236.105959" />
    <trip id="start2Toend1_75" type="connected" color="1,1,0" from="start2" to="end1" depart="2244.471426" />
    <trip id="start2Toend1_76" type="connected" color="1,1,0" from="start2" to="end1" depart="2274.494905" />
    <trip id="start1Toend1_63" type="connected" color="1,1,0" from="start1" to="end1" depart="2290.080358" />
    <trip id="start1Toend1_64" type="connected" color="1,1,0" from="start1" to="end1" depart="2303.408751" />
    <trip id="start2Toend1_77" type="connected" color="1,1,0" from="start2" to="end1" depart="2336.910625" />
    <trip id="start1Toend1_65" type="connected" color="1,1,0" from="start1" to="end1" depart="2386.495766" />
    <trip id="start2Toend1_78" type="connected" color="1,1,0" from="start2" to="end1" depart="2467.179804" />
    <trip id="start2Toend1_79" type="connected" color="1,1,0" from="start2" to="end1" depart="2477.841229" />
    <trip id="start1Toend1_66" type="connected" color="1,1,0" from="start1" to="end1" depart="2494.946142" />
    <trip id="start2Toend1_80" type="connected" color="1,1,0" from="start2" to="end1" depart="2496.159796" />
    <trip id="start2Toend1_81" type="connected" color="1,1,0" from="start2" to="end1" depart="2507.428826" />
    <trip id="start2Toend1_82" type="connected" color="1,1,0" from="start2" to="end1" depart="2519.573533" />
    <trip id="start2Toend1_83" type="connected" color="1,1,0" from="start2" to="end1" depart="2565.322417" />
    <trip id="start2Toend1_84" type="connected" color="1,1,0" from="start2" to="end1" depart="2572.144441" />
    <trip id="start2Toend1_85" type="connected" color="1,1,0" from="start2" to="end1" depart="2652.291203" />
    <trip id="start1Toend1_67" type="connected" color="1,1,0" from="start1" to="end1" depart="2661.308730" />
    <trip id="start1Toend1_68" type="connected" color="1,1,0" from="start1" to="end1" depart="2679.318843" />
    <trip id="start2Toend1_86" type="connected" color="1,1,0" from="start2" to="end1" depart="2689.348761" />
    <trip id="start1Toend1_69" type="connected" color="1,1,0" from="start1" to="end1" depart="2791.411770" />
    <trip id="start1Toend1_70" type="connected" color="1,1,0" from="start1" to="end1" depart="2793.859722" />
    <trip id="start1Toend1_71" type="connected" color="1,1,0" from="start1" to="end1" depart="2814.662908" />
    <trip id="start2Toend1_87" type="connected" color="1,1,0" from="start2" to="end1" depart="2860.678648" />
    <trip id="start2Toend1_88" type="connected" color="1,1,0" from="start2" to="end1" depart="2875.115486" />
    <trip id="start2Toend1_89" type="connected" color="1,1,0" from="start2" to="end1" depart="2896.277657" />
    <trip id="start1Toend1_72" type="connected" color="1,1,0" from="start1" to="end1" depart="2908.363031" />
    <trip id="start1Toend1_73" type="connected" color="1,1,0" from="start1" to="end1" depart="2913.407543" />
    <trip id="start2Toend1_90" type="connected" color="1,1,0" from="start2" to="end1" depart="2943.303461" />
    <trip id="start2Toend1_91" type="connected" color="1,1,0" from="start2" to="end1" depart="2966.517539" />
    <trip id="start1Toend1_74" type="connected" color="1,1,0" from="start1" to="end1" depart="2985.500940" />
    <trip id="start1Toend1_75" type="connected" color="1,1,0" from="start1" to="end1" depart="3005.158519" />
    <trip id="start1Toend1_76" type="connected" color="1,1,0" from="start1" to="end1" depart="3034.150587" />
    <trip id="start2Toend1_92" type="connected" color="1,1,0" from="start2" to="end1" depart="3076.824131" />
    <trip id="start2Toend1_93" type="connected" color="1,1,0" from="start2" to="end1" depart="3123.968167" />
    <trip id="start2Toend1_94" type="connected" color="1,1,0" from="start2" to="end1" depart="3133.885519" />
    <trip id="start2Toend1_95" type="connected" color="1,1,0" from="start2" to="end1" depart="3141.883348" />
    <trip id="start1Toend1_77" type="connected" color="1,1,0" from="start1" to="end1" depart="3168.472624" />
    <trip id="start1Toend1_78" type="connected" color="1,1,0" from="start1" to="end1" depart="3172.325512" />
    <trip id="start2Toend1_96" type="connected" color="1,1,0" from="start2" to="end1" depart="3214.413256" />
    <trip id="start1Toend1_79" type="connected" color="1,1,0" from="start1" to="end1" depart="3223.422129" />
    <trip id="start1Toend1_80" type="connected" color="1,1,0" from="start1" to="end1" depart="3246.330166" />
    <trip id="start2Toend1_97" type="connected" color="1,1,0" from="start2" to="end1" depart="3259.079412" />
    <trip id="start1Toend1_81" type="connected" color="1,1,0" from="start1" to="end1" depart="3260.460561" />
    <trip id="start1Toend1_82" type="connected" color="1,1,0" from="start1" to="end1" depart="3273.839681" />
    <trip id="start2Toend1_98" type="connected" color="1,1,0" from="start2" to="end1" depart="3286.345730" />
    <trip id="start2Toend1_99" type="connected" color="1,1,0" from="start2" to="end1" depart="3291.228503" />
    <trip id="start2Toend1_100" type="connected" color="1,1,0" from="start2" to="end1" depart="3295.013021" />
    <trip id="start2Toend1_101" type="connected" color="1,1,0" from="start2" to="end1" depart="3300.804002" />
    <trip id="start2Toend1_102" type="connected" color="1,1,0" from="start2" to="end1" depart="3313.731219" />
    <trip id="start2Toend1_103" type="connected" color="1,1,0" from="start2" to="end1" depart="3319.858841" />
    <trip id="start2Toend1_104" type="connected" color="1,1,0" from="start2" to="end1" depart="3328.316915" />
    <trip id="start2Toend1_105" type="connected" color="1,1,0" from="start2" to="end1" depart="3365.133774" />
    <trip id="start1Toend1_83" type="connected" color="1,1,0" from="start1" to="end1" depart="3394.687069" />
    <trip id="start2Toend1_106" type="connected" color="1,1,0" from="start2" to="end1" depart="3407.217177" />
    <trip id="start2Toend1_107" type="connected" color="1,1,0" from="start2" to="end1" depart="3408.781356" />
    <trip id="start2Toend1_108" type="connected" color="1,1,0" from="start2" to="end1" depart="3418.535159" />
    <trip id="start1Toend1_84" type="connected" color="1,1,0" from="start1" to="end1" depart="3485.243587" />
    <trip id="start1Toend1_85" type="connected" color="1,1,0" from="start1" to="end1" depart="3543.435927" />
    <trip id="start2Toend1_109" type="connected" color="1,1,0" from="start2" to="end1" depart="3598.288164" />
    <trip id="start1Toend1_86" type="connected" color="1,1,0" from="start1" to="end1" depart="3605.197052" />
    <trip id="start2Toend1_110" type="connected" color="1,1,0" from="start2" to="end1" depart="3605.902361" />
    <trip id="start1Toend1_87" type="connected" color="1,1,0" from="start1" to="end1" depart="3608.045355" />
    <trip id="start2Toend1_111" type="connected" color="1,1,0" from="start2" to="end1" depart="3610.426388" />
    <trip id="start1Toend1_88" type="connected" color="1,1,0" from="start1" to="end1" depart="3614.985003" />
    <trip id="start1Toend1_89" type="connected" color="1,1,0" from="start1" to="end1" depart="3624.211663" />
    <trip id="start2Toend1_112" type="connected" color="1,1,0" from="start2" to="end1" depart="3640.412142" />
    <trip id="start1Toend1_90" type="connected" color="1,1,0" from="start1" to="end1" depart="3640.767494" />
    <trip id="start1Toend1_91" type="connected" color="1,1,0" from="start1" to="end1" depart="3650.144652" />
    <trip id="start2Toend1_113" type="connected" color="1,1,0" from="start2" to="end1" depart="3667.142858" />
    <trip id="start2Toend1_114" type="connected" color="1,1,0" from="start2" to="end1" depart="3667.944458" />
    <trip id="start1Toend1_92" type="connected" color="1,1,0" from="start1" to="end1" depart="3678.153432" />
    <trip id="start1Toend1_93" type="connected" color="1,1,0" from="start1" to="end1" depart="3710.285899" />
    <trip id="start1Toend1_94" type="connected" color="1,1,0" from="start1" to="end1" depart="3713.630479" />
    <trip id="start1Toend1_95" type="connected" color="1,1,0" from="start1" to="end1" depart="3721.923216" />
    <trip id="start2Toend1_115" type="connected" color="1,1,0" from="start2" to="end1" depart="3723.263419" />
    <trip id="start1Toend1_96" type="connected" color="1,1,0" from="start1" to="end1" depart="3725.835526" />
    <trip id="start1Toend1_97" type="connected" color="1,1,0" from="start1" to="end1" depart="3735.731905" />
    <trip id="start1Toend1_98" type="connected" color="1,1,0" from="start1" to="end1" depart="3736.895424" />
    <trip id="start2Toend1_116" type="connected" color="1,1,0" from="start2" to="end1" depart="3753.275067" />
    <trip id="start2Toend1_117" type="connected" color="1,1,0" from="start2" to="end1" depart="3760.126661" />
    <trip id="start1Toend1_99" type="connected" color="1,1,0" from="start1" to="end1" depart="3783.231512" />
    <trip id="start2Toend1_118" type="connected" color="1,1,0" from="start2" to="end1" depart="3785.818639" />
    <trip id="start1Toend1_100" type="connected" color="1,1,0" from="start1" to="end1" depart="3791.458132" />
    <trip id="start1Toend1_101" type="connected" color="1,1,0" from="start1" to="end1" depart="3796.082593" />
    <trip id="start1Toend1_102" type="connected" color="1,1,0" from="start1" to="end1" depart="3805.682233" />
    <trip id="start2Toend1_119" type="connected" color="1,1,0" from="start2" to="end1" depart="3835.185168" />
    <trip id="start1Toend1_103" type="connected" color="1,1,0" from="start1" to="end1" depart="3844.177963" />
    <trip id="start1Toend1_104" type="connected" color="1,1,0" from="start1" to="end1" depart="3898.646875" />
    <trip id="start1Toend1_105" type="connected" color="1,1,0" from="start1" to="end1" depart="3919.211598" />
    <trip id="start1Toend1_106" type="connected" color="1,1,0" from="start1" to="end1" depart="3926.578312" />
    <trip id="start1Toend1_107" type="connected" color="1,1,0" from="start1" to="end1" depart="3954.522030" />
    <trip id="start2Toend1_120" type="connected" color="1,1,0" from="start2" to="end1" depart="3957.234614" />
    <trip id="start2Toend1_121" type="connected" color="1,1,0" from="start2" to="end1" depart="3965.111045" />
    <trip id="start1Toend1_108" type="connected" color="1,1,0" from="start1" to="end1" depart="3970.780268" />
    <trip id="start2Toend1_122" type="connected" color="1,1,0" from="start2" to="end1" depart="3987.552340" />
    <trip id="start2Toend1_123" type="connected" color="1,1,0" from="start2" to="end1" depart="3988.855013" />
    <trip id="start1Toend1_109" type="connected" color="1,1,0" from="start1" to="end1" depart="3995.239552" />
    <trip id="start2Toend1_124" type="connected" color="1,1,0" from="start2" to="end1" depart="4000.030806" />
    <trip id="start2Toend1_125" type="connected" color="1,1,0" from="start2" to="end1" depart="4033.065676" />
    <trip id="start2Toend1_126" type="connected" color="1,1,0" from="start2" to="end1" depart="4038.878688" />
    <trip id="start1Toend1_110" type="connected" color="1,1,0" from="start1" to="end1" depart="4057.691800" />
    <trip id="start1Toend1_111" type="connected" color="1,1,0" from="start1" to="end1" depart="4060.390512" />
    <trip id="start1Toend1_112" type="connected" color="1,1,0" from="start1" to="end1" depart="4065.390056" />
    <trip id="start1Toend1_113" type="connected" color="1,1,0" from="start1" to="end1" depart="4098.431729" />
    <trip id="start1Toend1_114" type="connected" color="1,1,0" from="start1" to="end1" depart="4100.449251" />
    <trip id="start1Toend1_115" type="connected" color="1,1,0" from="start1" to="end1" depart="4104.906231" />
    <trip id="start2Toend1_127" type="connected" color="1,1,0" from="start2" to="end1" depart="4106.118296" />
    <trip id="start2Toend1_128" type="connected" color="1,1,0" from="start2" to="end1" depart="4118.825945" />
    <trip id="start1Toend1_116" type="connected" color="1,1,0" from="start1" to="end1" depart="4157.818134" />
    <trip id="start1Toend1_117" type="connected" color="1,1,0" from="start1" to="end1" depart="4217.885316" />
    <trip id="start2Toend1_129" type="connected" color="1,1,0" from="start2" to="end1" depart="4228.770557" />
    <trip id="start2Toend1_130" type="connected" color="1,1,0" from="start2" to="end1" depart="4254.539794" />
    <trip id="start2Toend1_131" type="connected" color="1,1,0" from="start2" to="end1" depart="4256.580552" />
    <trip id="start1Toend1_118" type="connected" color="1,1,0" from="start1" to="end1" depart="4259.532390" />
    <trip id="start2Toend1_132" type="connected" color="1,1,0" from="start2" to="end1" depart="4267.763100" />
    <trip id="start1Toend1_119" type="connected" color="1,1,0" from="start1" to="end1" depart="4280.036829" />
    <trip id="start1Toend1_120" type="connected" color="1,1,0" from="start1" to="end1" depart="4285.486862" />
    <trip id="start1Toend1_121" type="connected" color="1,1,0" from="start1" to="end1" depart="4319.417788" />
    <trip id="start1Toend1_122" type="connected" color="1,1,0" from="start1" to="end1" depart="4330.157253" />
    <trip id="start2Toend1_133" type="connected" color="1,1,0" from="start2" to="end1" depart="4347.091235" />
    <trip id="start2Toend1_134" type="connected" color="1,1,0" from="start2" to="end1" depart="4351.447334" />
    <trip id="start2Toend1_135" type="connected" color="1,1,0" from="start2" to="end1" depart="4377.592647" />
    <trip id="start1Toend1_123" type="connected" color="1,1,0" from="start1" to="end1" depart="4402.993057" />
    <trip id="start1Toend1_124" type="connected" color="1,1,0" from="start1" to="end1" depart="4404.586408" />