<?xml version="1.0" encoding="UTF-8"?>

<routes>

	<route id="route0" edges="start1 end1" />
    <route id="route2" edges="start2 end1" />


    <vType id="conventional" vClass="passenger" sigma="1" maxSpeed="40.0" color="red" accel="10.0"/>
    <vType id="connected" vClass="passenger" tau="1.3" maxSpeed="28.00" lcCooperative="0.0" color="1,1,0" lcStrategic="1.0" accel="3.0" decel="1.5" emergencyDecel="4.5" lcSpeedGain="0.3" sigma="0.0" lcKeepRight="0.3"/>
    <vType id="connected_pCatchupFollower" vClass="passenger" emergencyDecel="4.5" length="5" tau="0.1" maxSpeed="28.00" color="1,1,0" accel="10.3" decel="1.7" sigma="0.0" minGap="2.0"/>
    <vType id="connected_pCatchup" vClass="passenger" tau="0.1" emergencyDecel="4.5" maxSpeed="28.00" color="0,0.8,0.3" accel="10.3" decel="1.7" sigma="0.0" minGap="2.0"/>
    <vType id="connected_pFollower" vClass="passenger" tau="0.1" maxSpeed="28.00" color="1,1,0" accel="10.3" decel="1.7" sigma="0.0"  minGap="2.0" emergencyDecel="4.5"/>
    <vType id="connected_pLeader" vClass="passenger" length="5" tau="1.3" maxSpeed="28.00" lcCooperative="0.0" color="1,1,0" lcStrategic="1.0" accel="2.0" decel="1.5" emergencyDecel="4.5" lcSpeedGain="0.3" sigma="0.0" lcKeepRight="0.3"/>
    


	
    <trip id="start1Toend1_0" type="connected" color="1,1,0" from="start1" to="end1" depart="0.000000" />
    <trip id="start2Toend1_0" type="connected" color="1,1,0" from="start2" to="end1" depart="0.000000" />
    <trip id="start1Toend1_1" type="connected" color="1,1,0" from="start1" to="end1" depart="2.892943" />
    <trip id="start1Toend1_2" type="connected" color="1,1,0" from="start1" to="end1" depart="18.422132" />
    <trip id="start1Toend1_3" type="connected" color="1,1,0" from="start1" to="end1" depart="96.205257" />
    <trip id="start1Toend1_4" type="connected" color="1,1,0" from="start1" to="end1" depart="98.851737" />
    <trip id="start2Toend1_1" type="connected" color="1,1,0" from="start2" to="end1" depart="142.738154" />
    <trip id="start2Toend1_2" type="connected" color="1,1,0" from="start2" to="end1" depart="155.615388" />
    <trip id="start1Toend1_5" type="connected" color="1,1,0" from="start1" to="end1" depart="162.874025" />
    <trip id="start2Toend1_3" type="connected" color="1,1,0" from="start2" to="end1" depart="207.691772" />
    <trip id="start2Toend1_4" type="connected" color="1,1,0" from="start2" to="end1" depart="222.897614" />
    <trip id="start2Toend1_5" type="connected" color="1,1,0" from="start2" to="end1" depart="268.182901" />
    <trip id="start1Toend1_6" type="connected" color="1,1,0" from="start1" to="end1" depart="295.206998" />
    <trip id="start1Toend1_7" type="connected" color="1,1,0" from="start1" to="end1" depart="306.116246" />
    <trip id="start2Toend1_6" type="connected" color="1,1,0" from="start2" to="end1" depart="325.175590" />
    <trip id="start2Toend1_7" type="connected" color="1,1,0" from="start2" to="end1" depart="332.669206" />
    <trip id="start2Toend1_8" type="connected" color="1,1,0" from="start2" to="end1" depart="337.731062" />
    <trip id="start1Toend1_8" type="connected" color="1,1,0" from="start1" to="end1" depart="348.557694" />
    <trip id="start2Toend1_9" type="connected" color="1,1,0" from="start2" to="end1" depart="406.289967" />
    <trip id="start1Toend1_9" type="connected" color="1,1,0" from="start1" to="end1" depart="409.605109" />
    <trip id="start1Toend1_10" type="connected" color="1,1,0" from="start1" to="end1" depart="455.181965" />
    <trip id="start1Toend1_11" type="connected" color="1,1,0" from="start1" to="end1" depart="460.455493" />
    <trip id="start2Toend1_10" type="connected" color="1,1,0" from="start2" to="end1" depart="492.819759" />
    <trip id="start1Toend1_12" type="connected" color="1,1,0" from="start1" to="end1" depart="504.266076" />
    <trip id="start1Toend1_13" type="connected" color="1,1,0" from="start1" to="end1" depart="520.889337" />
    <trip id="start2Toend1_11" type="connected" color="1,1,0" from="start2" to="end1" depart="547.626024" />
    <trip id="start1Toend1_14" type="connected" color="1,1,0" from="start1" to="end1" depart="581.137393" />
    <trip id="start2Toend1_12" type="connected" color="1,1,0" from="start2" to="end1" depart="670.756016" />
    <trip id="start1Toend1_15" type="connected" color="1,1,0" from="start1" to="end1" depart="677.846753" />
    <trip id="start1Toend1_16" type="connected" color="1,1,0" from="start1" to="end1" depart="701.775360" />
    <trip id="start1Toend1_17" type="connected" color="1,1,0" from="start1" to="end1" depart="711.087346" />
    <trip id="start2Toend1_13" type="connected" color="1,1,0" from="start2" to="end1" depart="724.537616" />
    <trip id="start1Toend1_18" type="connected" color="1,1,0" from="start1" to="end1" depart="752.703601" />
    <trip id="start1Toend1_19" type="connected" color="1,1,0" from="start1" to="end1" depart="764.040067" />
    <trip id="start1Toend1_20" type="connected" color="1,1,0" from="start1" to="end1" depart="764.956069" />
    <trip id="start2Toend1_14" type="connected" color="1,1,0" from="start2" to="end1" depart="766.365324" />
    <trip id="start2Toend1_15" type="connected" color="1,1,0" from="start2" to="end1" depart="769.137851" />
    <trip id="start1Toend1_21" type="connected" color="1,1,0" from="start1" to="end1" depart="771.415793" />
    <trip id="start2Toend1_16" type="connected" color="1,1,0" from="start2" to="end1" depart="774.343814" />
    <trip id="start1Toend1_22" type="connected" color="1,1,0" from="start1" to="end1" depart="782.059976" />
    <trip id="start2Toend1_17" type="connected" color="1,1,0" from="start2" to="end1" depart="812.067499" />
    <trip id="start1Toend1_23" type="connected" color="1,1,0" from="start1" to="end1" depart="825.388082" />
    <trip id="start2Toend1_18" type="connected" color="1,1,0" from="start2" to="end1" depart="828.977581" />
    <trip id="start1Toend1_24" type="connected" color="1,1,0" from="start1" to="end1" depart="841.494621" />
    <trip id="start1Toend1_25" type="connected" color="1,1,0" from="start1" to="end1" depart="842.553408" />
    <trip id="start1Toend1_26" type="connected" color="1,1,0" from="start1" to="end1" depart="848.718441" />
    <trip id="start2Toend1_19" type="connected" color="1,1,0" from="start2" to="end1" depart="857.044669" />
    <trip id="start2Toend1_20" type="connected" color="1,1,0" from="start2" to="end1" depart="896.665275" />
    <trip id="start1Toend1_27" type="connected" color="1,1,0" from="start1" to="end1" depart="899.998030" />
    <trip id="start1Toend1_28" type="connected" color="1,1,0" from="start1" to="end1" depart="915.031377" />
    <trip id="start1Toend1_29" type="connected" color="1,1,0" from="start1" to="end1" depart="921.415500" />
    <trip id="start2Toend1_21" type="connected" color="1,1,0" from="start2" to="end1" depart="937.057095" />
    <trip id="start1Toend1_30" type="connected" color="1,1,0" from="start1" to="end1" depart="951.587970" />
    <trip id="start2Toend1_22" type="connected" color="1,1,0" from="start2" to="end1" depart="971.033718" />
    <trip id="start1Toend1_31" type="connected" color="1,1,0" from="start1" to="end1" depart="976.127582" />
    <trip id="start1Toend1_32" type="connected" color="1,1,0" from="start1" to="end1" depart="983.327821" />
    <trip id="start1Toend1_33" type="connected" color="1,1,0" from="start1" to="end1" depart="1002.570367" />
    <trip id="start1Toend1_34" type="connected" color="1,1,0" from="start1" to="end1" depart="1013.469024" />
    <trip id="start1Toend1_35" type="connected" color="1,1,0" from="start1" to="end1" depart="1027.813276" />
    <trip id="start1Toend1_36" type="connected" color="1,1,0" from="start1" to="end1" depart="1030.444350" />
    <trip id="start1Toend1_37" type="connected" color="1,1,0" from="start1" to="end1" depart="1073.099708" />
    <trip id="start2Toend1_23" type="connected" color="1,1,0" from="start2" to="end1" depart="1079.380769" />
    <trip id="start2Toend1_24" type="connected" color="1,1,0" from="start2" to="end1" depart="1090.390945" />
    <trip id="start1Toend1_38" type="connected" color="1,1,0" from="start1" to="end1" depart="1104.351556" />
    <trip id="start1Toend1_39" type="connected" color="1,1,0" from="start1" to="end1" depart="1105.077979" />
    <trip id="start2Toend1_25" type="connected" color="1,1,0" from="start2" to="end1" depart="1159.966400" />
    <trip id="start1Toend1_40" type="connected" color="1,1,0" from="start1" to="end1" depart="1188.661960" />
    <trip id="start2Toend1_26" type="connected" color="1,1,0" from="start2" to="end1" depart="1250.943696" />
    <trip id="start2Toend1_27" type="connected" color="1,1,0" from="start2" to="end1" depart="1255.637377" />
    <trip id="start1Toend1_41" type="connected" color="1,1,0" from="start1" to="end1" depart="1268.704560" />
    <trip id="start1Toend1_42" type="connected" color="1,1,0" from="start1" to="end1" depart="1271.723986" />
    <trip id="start2Toend1_28" type="connected" color="1,1,0" from="start2" to="end1" depart="1284.358672" />
    <trip id="start1Toend1_43" type="connected" color="1,1,0" from="start1" to="end1" depart="1284.749829" />
    <trip id="start2Toend1_29" type="connected" color="1,1,0" from="start2" to="end1" depart="1287.421234" />
    <trip id="start1Toend1_44" type="connected" color="1,1,0" from="start1" to="end1" depart="1382.604158" />
    <trip id="start1Toend1_45" type="connected" color="1,1,0" from="start1" to="end1" depart="1433.787294" />
    <trip id="start2Toend1_30" type="connected" color="1,1,0" from="start2" to="end1" depart="1445.218402" />
    <trip id="start2Toend1_31" type="connected" color="1,1,0" from="start2" to="end1" depart="1455.217053" />
    <trip id="start2Toend1_32" type="connected" color="1,1,0" from="start2" to="end1" depart="1497.446121" />
    <trip id="start1Toend1_46" type="connected" color="1,1,0" from="start1" to="end1" depart="1518.303225" />
    <trip id="start2Toend1_33" type="connected" color="1,1,0" from="start2" to="end1" depart="1557.518570" />
    <trip id="start2Toend1_34" type="connected" color="1,1,0" from="start2" to="end1" depart="1557.996559" />
    <trip id="start2Toend1_35" type="connected" color="1,1,0" from="start2" to="end1" depart="1601.420611" />
    <trip id="start2Toend1_36" type="connected" color="1,1,0" from="start2" to="end1" depart="1602.141393" />
    <trip id="start2Toend1_37" type="connected" color="1,1,0" from="start2" to="end1" depart="1623.806039" />
    <trip id="start2Toend1_38" type="connected" color="1,1,0" from="start2" to="end1" depart="1699.262410" />
    <trip id="start1Toend1_47" type="connected" color="1,1,0" from="start1" to="end1" depart="1716.020700" />
    <trip id="start1Toend1_48" type="connected" color="1,1,0" from="start1" to="end1" depart="1725.653310" />
    <trip id="start2Toend1_39" type="connected" color="1,1,0" from="start2" to="end1" depart="1727.036130" />
    <trip id="start1Toend1_49" type="connected" color="1,1,0" from="start1" to="end1" depart="1793.948267" />
    <trip id="start1Toend1_50" type="connected" color="1,1,0" from="start1" to="end1" depart="1795.871144" />
    <trip id="start2Toend1_40" type="connected" color="1,1,0" from="start2" to="end1" depart="1806.832666" />
    <trip id="start1Toend1_51" type="connected" color="1,1,0" from="start1" to="end1" depart="1816.208988" />
    <trip id="start1Toend1_52" type="connected" color="1,1,0" from="start1" to="end1" depart="1823.131156" />
    <trip id="start1Toend1_53" type="connected" color="1,1,0" from="start1" to="end1" depart="1853.533648" />
    <trip id="start2Toend1_41" type="connected" color="1,1,0" from="start2" to="end1" depart="1855.764786" />
    <trip id="start1Toend1_54" type="connected" color="1,1,0" from="start1" to="end1" depart="1861.188210" />
    <trip id="start2Toend1_42" type="connected" color="1,1,0" from="start2" to="end1" depart="1862.851386" />
    <trip id="start2Toend1_43" type="connected" color="1,1,0" from="start2" to="end1" depart="1878.836276" />
    <trip id="start2Toend1_44" type="connected" color="1,1,0" from="start2" to="end1" depart="1881.036730" />
    <trip id="start2Toend1_45" type="connected" color="1,1,0" from="start2" to="end1" depart="1933.714409" />
    <trip id="start2Toend1_46" type="connected" color="1,1,0" from="start2" to="end1" depart="1965.700893" />
    <trip id="start1Toend1_55" type="connected" color="1,1,0" from="start1" to="end1" depart="2023.428248" />
    <trip id="start1Toend1_56" type="connected" color="1,1,0" from="start1" to="end1" depart="2096.391782" />
    <trip id="start2Toend1_47" type="connected" color="1,1,0" from="start2" to="end1" depart="2120.249091" />
    <trip id="start2Toend1_48" type="connected" color="1,1,0" from="start2" to="end1" depart="2152.737671" />
    <trip id="start2Toend1_49" type="connected" color="1,1,0" from="start2" to="end1" depart="2212.180544" />
    <trip id="start1Toend1_57" type="connected" color="1,1,0" from="start1" to="end1" depart="2229.445690" />
    <trip id="start2Toend1_50" type="connected" color="1,1,0" from="start2" to="end1" depart="2236.366078" />
    <trip id="start1Toend1_58" type="connected" color="1,1,0" from="start1" to="end1" depart="2243.511245" />
    <trip id="start1Toend1_59" type="connected" color="1,1,0" from="start1" to="end1" depart="2265.942782" />
    <trip id="start1Toend1_60" type="connected" color="1,1,0" from="start1" to="end1" depart="2277.665131" />
    <trip id="start1Toend1_61" type="connected" color="1,1,0" from="start1" to="end1" depart="2308.529855" />
    <trip id="start1Toend1_62" type="connected" color="1,1,0" from="start1" to="end1" depart="2321.153079" />
    <trip id="start2Toend1_51" type="connected" color="1,1,0" from="start2" to="end1" depart="2332.427030" />
    <trip id="start1Toend1_63" type="connected" color="1,1,0" from="start1" to="end1" depart="2375.465468" />
    <trip id="start1Toend1_64" type="connected" color="1,1,0" from="start1" to="end1" depart="2424.301180" />
    <trip id="start2Toend1_52" type="connected" color="1,1,0" from="start2" to="end1" depart="2443.800178" />
    <trip id="start1Toend1_65" type="connected" color="1,1,0" from="start1" to="end1" depart="2451.282166" />
    <trip id="start2Toend1_53" type="connected" color="1,1,0" from="start2" to="end1" depart="2461.465484" />
    <trip id="start2Toend1_54" type="connected" color="1,1,0" from="start2" to="end1" depart="2473.956188" />
    <trip id="start1Toend1_66" type="connected" color="1,1,0" from="start1" to="end1" depart="2518.598412" />
    <trip id="start1Toend1_67" type="connected" color="1,1,0" from="start1" to="end1" depart="2529.020221" />
    <trip id="start2Toend1_55" type="connected" color="1,1,0" from="start2" to="end1" depart="2545.933842" />
    <trip id="start1Toend1_68" type="connected" color="1,1,0" from="start1" to="end1" depart="2546.561922" />
    <trip id="start2Toend1_56" type="connected" color="1,1,0" from="start2" to="end1" depart="2555.689971" />
    <trip id="start1Toend1_69" type="connected" color="1,1,0" from="start1" to="end1" depart="2565.194095" />
    <trip id="start1Toend1_70" type="connected" color="1,1,0" from="start1" to="end1" depart="2653.578054" />
    <trip id="start1Toend1_71" type="connected" color="1,1,0" from="start1" to="end1" depart="2661.274517" />
    <trip id="start2Toend1_57" type="connected" color="1,1,0" from="start2" to="end1" depart="2674.605859" />
    <trip id="start2Toend1_58" type="connected" color="1,1,0" from="start2" to="end1" depart="2689.604385" />
    <trip id="start2Toend1_59" type="connected" color="1,1,0" from="start2" to="end1" depart="2746.321633" />
    <trip id="start2Toend1_60" type="connected" color="1,1,0" from="start2" to="end1" depart="2758.542418" />
    <trip id="start1Toend1_72" type="connected" color="1,1,0" from="start1" to="end1" depart="2770.436206" />
    <trip id="start2Toend1_61" type="connected" color="1,1,0" from="start2" to="end1" depart="2786.335386" />
    <trip id="start2Toend1_62" type="connected" color="1,1,0" from="start2" to="end1" depart="2786.679724" />
    <trip id="start2Toend1_63" type="connected" color="1,1,0" from="start2" to="end1" depart="2824.622416" />
    <trip id="start2Toend1_64" type="connected" color="1,1,0" from="start2" to="end1" depart="2830.821574" />
    <trip id="start1Toend1_73" type="connected" color="1,1,0" from="start1" to="end1" depart="2833.738963" />
    <trip id="start2Toend1_65" type="connected" color="1,1,0" from="start2" to="end1" depart="2856.264680" />
    <trip id="start2Toend1_66" type="connected" color="1,1,0" from="start2" to="end1" depart="2862.698966" />
    <trip id="start1Toend1_74" type="connected" color="1,1,0" from="start1" to="end1" depart="2922.066721" />
    <trip id="start1Toend1_75" type="connected" color="1,1,0" from="start1" to="end1" depart="2934.026809" />
    <trip id="start1Toend1_76" type="connected" color="1,1,0" from="start1" to="end1" depart="2962.538498" />
    <trip id="start1Toend1_77" type="connected" color="1,1,0" from="start1" to="end1" depart="2964.993339" />
    <trip id="start1Toend1_78" type="connected" color="1,1,0" from="start1" to="end1" depart="2968.374610" />
    <trip id="start1Toend1_79" type="connected" color="1,1,0" from="start1" to="end1" depart="2976.244833" />
    <trip id="start1Toend1_80" type="connected" color="1,1,0" from="start1" to="end1" depart="2993.875198" />
    <trip id="start1Toend1_81" type="connected" color="1,1,0" from="start1" to="end1" depart="3041.849852" />
    <trip id="start1Toend1_82" type="connected" color="1,1,0" from="start1" to="end1" depart="3058.380101" />
    <trip id="start1Toend1_83" type="connected" color="1,1,0" from="start1" to="end1" depart="3090.113330" />
    <trip id="start1Toend1_84" type="connected" color="1,1,0" from="start1" to="end1" depart="3092.187974" />
    <trip id="start1Toend1_85" type="connected" color="1,1,0" from="start1" to="end1" depart="3114.521886" />
    <trip id="start2Toend1_67" type="connected" color="1,1,0" from="start2" to="end1" depart="3122.561696" />
    <trip id="start2Toend1_68" type="connected" color="1,1,0" from="start2" to="end1" depart="3157.922986" />
    <trip id="start1Toend1_86" type="connected" color="1,1,0" from="start1" to="end1" depart="3158.793388" />
    <trip id="start1Toend1_87" type="connected" color="1,1,0" from="start1" to="end1" depart="3167.352892" />
    <trip id="start2Toend1_69" type="connected" color="1,1,0" from="start2" to="end1" depart="3170.490824" />
    <trip id="start1Toend1_88" type="connected" color="1,1,0" from="start1" to="end1" depart="3226.195096" />
    <trip id="start2Toend1_70" type="connected" color="1,1,0" from="start2" to="end1" depart="3226.558387" />
    <trip id="start2Toend1_71" type="connected" color="1,1,0" from="start2" to="end1" depart="3226.624787" />
    <trip id="start2Toend1_72" type="connected" color="1,1,0" from="start2" to="end1" depart="3228.429860" />
    <trip id="start2Toend1_73" type="connected" color="1,1,0" from="start2" to="end1" depart="3231.260556" />
    <trip id="start1Toend1_89" type="connected" color="1,1,0" from="start1" to="end1" depart="3241.245044" />
    <trip id="start2Toend1_74" type="connected" color="1,1,0" from="start2" to="end1" depart="3277.765972" />
    <trip id="start1Toend1_90" type="connected" color="1,1,0" from="start1" to="end1" depart="3280.198337" />
    <trip id="start1Toend1_91" type="connected" color="1,1,0" from="start1" to="end1" depart="3290.089824" />
    <trip id="start2Toend1_75" type="connected" color="1,1,0" from="start2" to="end1" depart="3291.948274" />
    <trip id="start2Toend1_76" type="connected" color="1,1,0" from="start2" to="end1" depart="3304.456754" />
    <trip id="start1Toend1_92" type="connected" color="1,1,0" from="start1" to="end1" depart="3306.394888" />
    <trip id="start2Toend1_77" type="connected" color="1,1,0" from="start2" to="end1" depart="3313.400215" />
    <trip id="start2Toend1_78" type="connected" color="1,1,0" from="start2" to="end1" depart="3408.008565" />
    <trip id="start2Toend1_79" type="connected" color="1,1,0" from="start2" to="end1" depart="3409.289796" />
    <trip id="start1Toend1_93" type="connected" color="1,1,0" from="start1" to="end1" depart="3455.469244" />
    <trip id="start1Toend1_94" type="connected" color="1,1,0" from="start1" to="end1" depart="3481.564338" />
    <trip id="start1Toend1_95" type="connected" color="1,1,0" from="start1" to="end1" depart="3573.140691" />
    <trip id="start1Toend1_96" type="connected" color="1,1,0" from="start1" to="end1" depart="3623.824214" />
    <trip id="start2Toend1_80" type="connected" color="1,1,0" from="start2" to="end1" depart="3639.411369" />
    <trip id="start2Toend1_81" type="connected" color="1,1,0" from="start2" to="end1" depart="3648.779425" />
    <trip id="start1Toend1_97" type="connected" color="1,1,0" from="start1" to="end1" depart="3663.178272" />
    <trip id="start2Toend1_82" type="connected" color="1,1,0" from="start2" to="end1" depart="3685.923027" />
    <trip id="start2Toend1_83" type="connected" color="1,1,0" from="start2" to="end1" depart="3686.281825" />
    <trip id="start2Toend1_84" type="connected" color="1,1,0" from="start2" to="end1" depart="3716.641832" />
    <trip id="start2Toend1_85" type="connected" color="1,1,0" from="start2" to="end1" depart="3721.543861" />
    <trip id="start1Toend1_98" type="connected" color="1,1,0" from="start1" to="end1" depart="3727.309280" />
    <trip id="start2Toend1_86" type="connected" color="1,1,0" from="start2" to="end1" depart="3729.295479" />
    <trip id="start2Toend1_87" type="connected" color="1,1,0" from="start2" to="end1" depart="3741.400338" />
    <trip id="start1Toend1_99" type="connected" color="1,1,0" from="start1" to="end1" depart="3742.099604" />
    <trip id="start1Toend1_100" type="connected" color="1,1,0" from="start1" to="end1" depart="3751.125470" />
    <trip id="start1Toend1_101" type="connected" color="1,1,0" from="start1" to="end1" depart="3771.118327" />
    <trip id="start2Toend1_88" type="connected" color="1,1,0" from="start2" to="end1" depart="3774.323524" />
    <trip id="start2Toend1_89" type="connected" color="1,1,0" from="start2" to="end1" depart="3798.886693" />
    <trip id="start1Toend1_102" type="connected" color="1,1,0" from="start1" to="end1" depart="3883.964381" />
    <trip id="start2Toend1_90" type="connected" color="1,1,0" from="start2" to="end1" depart="3899.749742" />
    <trip id="start1Toend1_103" type="connected" color="1,1,0" from="start1" to="end1" depart="3911.606436" />
    <trip id="start1Toend1_104" type="connected" color="1,1,0" from="start1" to="end1" depart="3919.777688" />
    <trip id="start1Toend1_105" type="connected" color="1,1,0" from="start1" to="end1" depart="3937.685656" />
    <trip id="start1Toend1_106" type="connected" color="1,1,0" from="start1" to="end1" depart="3939.878482" />
    <trip id="start1Toend1_107" type="connected" color="1,1,0" from="start1" to="end1" depart="3949.300891" />
    <trip id="start1Toend1_108" type="connected" color="1,1,0" from="start1" to="end1" depart="3958.498180" />
    <trip id="start2Toend1_91" type="connected" color="1,1,0" from="start2" to="end1" depart="3962.325889" />
    <trip id="start1Toend1_109" type="connected" color="1,1,0" from="start1" to="end1" depart="3974.158672" />
    <trip id="start2Toend1_92" type="connected" color="1,1,0" from="start2" to="end1" depart="3980.587607" />
    <trip id="start2Toend1_93" type="connected" color="1,1,0" from="start2" to="end1" depart="3991.126993" />
    <trip id="start2Toend1_94" type="connected" color="1,1,0" from="start2" to="end1" depart="3997.496588" />
    <trip id="start2Toend1_95" type="connected" color="1,1,0" from="start2" to="end1" depart="3999.133660" />
    <trip id="start2Toend1_96" type="connected" color="1,1,0" from="start2" to="end1" depart="4049.450553" />
    <trip id="start2Toend1_97" type="connected" color="1,1,0" from="start2" to="end1" depart="4052.897179" />
    <trip id="start1Toend1_110" type="connected" color="1,1,0" from="start1" to="end1" depart="4068.486657" />
    <trip id="start1Toend1_111" type="connected" color="1,1,0" from="start1" to="end1" depart="4071.892015" />
    <trip id="start1Toend1_112" type="connected" color="1,1,0" from="start1" to="end1" depart="4077.511388" />
    <trip id="start2Toend1_98" type="connected" color="1,1,0" from="start2" to="end1" depart="4085.089871" />
    <trip id="start1Toend1_113" type="connected" color="1,1,0" from="start1" to="end1" depart="4093.532890" />
    <trip id="start1Toend1_114" type="connected" color="1,1,0" from="start1" to="end1" depart="4094.166748" />
    <trip id="start2Toend1_99" type="connected" color="1,1,0" from="start2" to="end1" depart="4095.062906" />
    <trip id="start2Toend1_100" type="connected" color="1,1,0" from="start2" to="end1" depart="4095.839355" />
    <trip id="start2Toend1_101" type="connected" color="1,1,0" from="start2" to="end1" depart="4101.246570" />
    <trip id="start1Toend1_115" type="connected" color="1,1,0" from="start1" to="end1" depart="4105.707066" />
    <trip id="start1Toend1_116" type="connected" color="1,1,0" from="start1" to="end1" depart="4115.680282" />
    <trip id="start1Toend1_117" type="connected" color="1,1,0" from="start1" to="end1" depart="4127.108324" />
    <trip id="start2Toend1_102" type="connected" color="1,1,0" from="start2" to="end1" depart="4132.430543" />
    <trip id="start2Toend1_103" type="connected" color="1,1,0" from="start2" to="end1" depart="4176.452844" />
    <trip id="start1Toend1_118" type="connected" color="1,1,0" from="start1" to="end1" depart="4199.222793" />
    <trip id="start2Toend1_104" type="connected" color="1,1,0" from="start2" to="end1" depart="4215.315117" />
    <trip id="start1Toend1_119" type="connected" color="1,1,0" from="start1" to="end1" depart="4228.728430" />
    <trip id="start2Toend1_105" type="connected" color="1,1,0" from="start2" to="end1" depart="4240.246027" />
    <trip id="start2Toend1_106" type="connected" color="1,1,0" from="start2" to="end1" depart="4265.645214" />
    <trip id="start2Toend1_107" type="connected" color="1,1,0" from="start2" to="end1" depart="4276.757371" />
    <trip id="start2Toend1_108" type="connected" color="1,1,0" from="start2" to="end1" depart="4284.623801" />
    <trip id="start1Toend1_120" type="connected" color="1,1,0" from="start1" to="end1" depart="4290.858293" />
    <trip id="start1Toend1_121" type="connected" color="1,1,0" from="start1" to="end1" depart="4316.949617" />
    <trip id="start2Toend1_109" type="connected" color="1,1,0" from="start2" to="end1" depart="4327.112657" />
    <trip id="start1Toend1_122" type="connected" color="1,1,0" from="start1" to="end1" depart="4328.417903" />
    <trip id="start2Toend1_110" type="connected" color="1,1,0" from="start2" to="end1" depart="4339.101619" />
    <trip id="start1Toend1_123" type="connected" color="1,1,0" from="start1" to="end1" depart="4354.698377" />
    <trip id="start1Toend1_124" type="connected" color="1,1,0" from="start1" to="end1" depart="4361.490406" />
    <trip id="start2Toend1_111" type="connected" color="1,1,0" from="start2" to="end1" depart="4367.308560" />
    <trip id="start2Toend1_112" type="connected" color="1,1,0" from="start2" to="end1" depart="4384.592458" />
    <trip id="start2Toend1_113" type="connected" color="1,1,0" from="start2" to="end1" depart="4400.021053" />
    <trip id="start1Toend1_125" type="connected" color="1,1,0" from="start1" to="end1" depart="4411.379076" />
    <trip id="start2Toend1_114" type="connected" color="1,1,0" from="start2" to="end1" depart="4429.649905" />
    <trip id="start2Toend1_115" type="connected" color="1,1,0" from="start2" to="end1" depart="4465.534037" />
    <trip id="start2Toend1_116" type="connected" color="1,1,0" from="start2" to="end1" depart="4481.224273" />
    <trip id="start1Toend1_126" type="connected" color="1,1,0" from="start1" to="end1" depart="4503.729156" />
    <trip id="start2Toend1_117" type="connected" color="1,1,0" from="start2" to="end1" depart="4528.331879" />
    <trip id="start2Toend1_118" type="connected" color="1,1,0" from="start2" to="end1" depart="4529.875441" />
    <trip id="start1Toend1_127" type="connected" color="1,1,0" from="start1" to="end1" depart="4541.656879" />
    <trip id="start1Toend1_128" type="connected" color="1,1,0" from="start1" to="end1" depart="4542.796764" />
    <trip id="start1Toend1_129" type="connected" color="1,1,0" from="start1" to="end1" depart="4589.400822" />
    <trip id="start1Toend1_130" type="connected" color="1,1,0" from="start1" to="end1" depart="4599.430195" />
    <trip id="start2Toend1_119" type="connected" color="1,1,0" from="start2" to="end1" depart="4601.963501" />
    <trip id="start1Toend1_131" type="connected" color="1,1,0" from="start1" to="end1" depart="4610.521204" />
    <trip id="start1Toend1_132" type="connected" color="1,1,0" from="start1" to="end1" depart="4622.551833" />
    <trip id="start2Toend1_120" type="connected" color="1,1,0" from="start2" to="end1" depart="4643.230619" />
    <trip id="start1Toend1_133" type="connected" color="1,1,0" from="start1" to="end1" depart="4682.471067" />
    <trip id="start1Toend1_134" type="connected" color="1,1,0" from="start1" to="end1" depart="4722.460984" />
    <trip id="start2Toend1_121" type="connected" color="1,1,0" from="start2" to="end1" depart="4739.754849" />
    <trip id="start2Toend1_122" type="connected" color="1,1,0" from="start2" to="end1" depart="4776.512777" />
    <trip id="start2Toend1_123" type="connected" color="1,1,0" from="start2" to="end1" depart="4778.919808" />
    <trip id="start1Toend1_135" type="connected" color="1,1,0" from="start1" to="end1" depart="4782.758284" />
    <trip id="start1Toend1_136" type="connected" color="1,1,0" from="start1" to="end1" depart="4784.558697" />