<?xml version="1.0" encoding="UTF-8"?>

<routes>

	<route id="route0" edges="start1 end1" />
    <route id="route2" edges="start2 end1" />


    <vType id="conventional" vClass="passenger" sigma="1" maxSpeed="40.0" color="red" accel="10.0"/>
    <vType id="connected" vClass="passenger" tau="1.3" maxSpeed="28.00" lcCooperative="0.0" color="1,1,0" lcStrategic="1.0" accel="3.0" decel="1.5" emergencyDecel="4.5" lcSpeedGain="0.3" sigma="0.0" lcKeepRight="0.3"/>
    <vType id="connected_pCatchupFollower" vClass="passenger" emergencyDecel="4.5" length="5" tau="0.1" maxSpeed="28.00" color="1,1,0" accel="10.3" decel="1.7" sigma="0.0" minGap="2.0"/>
    <vType id="connected_pCatchup" vClass="passenger" tau="0.1" emergencyDecel="4.5" maxSpeed="28.00" color="0,0.8,0.3" accel="10.3" decel="1.7" sigma="0.0" minGap="2.0"/>
    <vType id="connected_pFollower" vClass="passenger" tau="0.1" maxSpeed="28.00" color="1,1,0" accel="10.3" decel="1.7" sigma="0.0"  minGap="2.0" emergencyDecel="4.5"/>
    <vType id="connected_pLeader" vClass="passenger" length="5" tau="1.3" maxSpeed="28.00" lcCooperative="0.0" color="1,1,0" lcStrategic="1.0" accel="2.0" decel="1.5" emergencyDecel="4.5" lcSpeedGain="0.3" sigma="0.0" lcKeepRight="0.3"/>
    


	
    <trip id="start1Toend1_0" type="connected" color="1,1,0" from="start1" to="end1" depart="0.000000" />
    <trip id="start2Toend1_0" type="connected" color="1,1,0" from="start2" to="end1" depart="0.000000" />
    <trip id="start2Toend1_1" type="connected" color="1,1,0" from="start2" to="end1" depart="11.706566" />
    <trip id="start2Toend1_2" type="connected" color="1,1,0" from="start2" to="end1" depart="209.131251" />
    <trip id="start1Toend1_1" type="connected" color="1,1,0" from="start1" to="end1" depart="210.582545" />
    <trip id="start2Toend1_3" type="connected" color="1,1,0" from="start2" to="end1" depart="211.260418" />
    <trip id="start2Toend1_4" type="connected" color="1,1,0" from="start2" to="end1" depart="247.080840" />
    <trip id="start2Toend1_5" type="connected" color="1,1,0" from="start2" to="end1" depart="298.278344" />
    <trip id="start1Toend1_2" type="connected" color="1,1,0" from="start1" to="end1" depart="328.200536" />
    <trip id="start1Toend1_3" type="connected" color="1,1,0" from="start1" to="end1" depart="352.642523" />
    <trip id="start2Toend1_6" type="connected" color="1,1,0" from="start2" to="end1" depart="398.399223" />
    <trip id="start2Toend1_7" type="connected" color="1,1,0" from="start2" to="end1" depart="423.888516" />
    <trip id="start2Toend1_8" type="connected" color="1,1,0" from="start2" to="end1" depart="483.927563" />
    <trip id="start1Toend1_4" type="connected" color="1,1,0" from="start1" to="end1" depart="505.395259" />
    <trip id="start2Toend1_9" type="connected" color="1,1,0" from="start2" to="end1" depart="506.484124" />
    <trip id="start2Toend1_10" type="connected" color="1,1,0" from="start2" to="end1" depart="565.158055" />
    <trip id="start2Toend1_11" type="connected" color="1,1,0" from="start2" to="end1" depart="641.653556" />
    <trip id="start2Toend1_12" type="connected" color="1,1,0" from="start2" to="end1" depart="871.432999" />
    <trip id="start2Toend1_13" type="connected" color="1,1,0" from="start2" to="end1" depart="871.657178" />
    <trip id="start1Toend1_5" type="connected" color="1,1,0" from="start1" to="end1" depart="958.303382" />
    <trip id="start2Toend1_14" type="connected" color="1,1,0" from="start2" to="end1" depart="989.603441" />
    <trip id="start1Toend1_6" type="connected" color="1,1,0" from="start1" to="end1" depart="1040.953206" />
    <trip id="start2Toend1_15" type="connected" color="1,1,0" from="start2" to="end1" depart="1117.985611" />
    <trip id="start2Toend1_16" type="connected" color="1,1,0" from="start2" to="end1" depart="1129.703709" />
    <trip id="start1Toend1_7" type="connected" color="1,1,0" from="start1" to="end1" depart="1156.813925" />
    <trip id="start2Toend1_17" type="connected" color="1,1,0" from="start2" to="end1" depart="1249.424338" />
    <trip id="start1Toend1_8" type="connected" color="1,1,0" from="start1" to="end1" depart="1320.787311" />
    <trip id="start1Toend1_9" type="connected" color="1,1,0" from="start1" to="end1" depart="1418.771348" />
    <trip id="start1Toend1_10" type="connected" color="1,1,0" from="start1" to="end1" depart="1444.022918" />
    <trip id="start1Toend1_11" type="connected" color="1,1,0" from="start1" to="end1" depart="1470.529974" />
    <trip id="start1Toend1_12" type="connected" color="1,1,0" from="start1" to="end1" depart="1531.435716" />
    <trip id="start1Toend1_13" type="connected" color="1,1,0" from="start1" to="end1" depart="1553.265016" />
    <trip id="start1Toend1_14" type="connected" color="1,1,0" from="start1" to="end1" depart="1573.463964" />
    <trip id="start2Toend1_18" type="connected" color="1,1,0" from="start2" to="end1" depart="1574.000648" />
    <trip id="start1Toend1_15" type="connected" color="1,1,0" from="start1" to="end1" depart="1639.992628" />
    <trip id="start2Toend1_19" type="connected" color="1,1,0" from="start2" to="end1" depart="1710.853074" />
    <trip id="start2Toend1_20" type="connected" color="1,1,0" from="start2" to="end1" depart="1716.957747" />
    <trip id="start2Toend1_21" type="connected" color="1,1,0" from="start2" to="end1" depart="1866.622779" />
    <trip id="start1Toend1_16" type="connected" color="1,1,0" from="start1" to="end1" depart="1976.559199" />
    <trip id="start2Toend1_22" type="connected" color="1,1,0" from="start2" to="end1" depart="2017.349424" />
    <trip id="start2Toend1_23" type="connected" color="1,1,0" from="start2" to="end1" depart="2069.506308" />
    <trip id="start2Toend1_24" type="connected" color="1,1,0" from="start2" to="end1" depart="2300.349057" />
    <trip id="start1Toend1_17" type="connected" color="1,1,0" from="start1" to="end1" depart="2385.449295" />
    <trip id="start2Toend1_25" type="connected" color="1,1,0" from="start2" to="end1" depart="2393.788582" />
    <trip id="start2Toend1_26" type="connected" color="1,1,0" from="start2" to="end1" depart="2406.592489" />
    <trip id="start1Toend1_18" type="connected" color="1,1,0" from="start1" to="end1" depart="2429.758641" />
    <trip id="start1Toend1_19" type="connected" color="1,1,0" from="start1" to="end1" depart="2433.603710" />
    <trip id="start1Toend1_20" type="connected" color="1,1,0" from="start1" to="end1" depart="2542.185961" />
    <trip id="start2Toend1_27" type="connected" color="1,1,0" from="start2" to="end1" depart="2695.284242" />
    <trip id="start2Toend1_28" type="connected" color="1,1,0" from="start2" to="end1" depart="2768.716851" />
    <trip id="start1Toend1_21" type="connected" color="1,1,0" from="start1" to="end1" depart="2827.936279" />
    <trip id="start2Toend1_29" type="connected" color="1,1,0" from="start2" to="end1" depart="2829.142979" />
    <trip id="start2Toend1_30" type="connected" color="1,1,0" from="start2" to="end1" depart="2863.544157" />
    <trip id="start2Toend1_31" type="connected" color="1,1,0" from="start2" to="end1" depart="2958.470360" />
    <trip id="start2Toend1_32" type="connected" color="1,1,0" from="start2" to="end1" depart="2964.896315" />
    <trip id="start2Toend1_33" type="connected" color="1,1,0" from="start2" to="end1" depart="3056.942763" />
    <trip id="start1Toend1_22" type="connected" color="1,1,0" from="start1" to="end1" depart="3060.587022" />
    <trip id="start2Toend1_34" type="connected" color="1,1,0" from="start2" to="end1" depart="3102.049167" />
    <trip id="start2Toend1_35" type="connected" color="1,1,0" from="start2" to="end1" depart="3111.077640" />
    <trip id="start1Toend1_23" type="connected" color="1,1,0" from="start1" to="end1" depart="3113.646623" />
    <trip id="start2Toend1_36" type="connected" color="1,1,0" from="start2" to="end1" depart="3116.123264" />
    <trip id="start1Toend1_24" type="connected" color="1,1,0" from="start1" to="end1" depart="3124.040303" />
    <trip id="start2Toend1_37" type="connected" color="1,1,0" from="start2" to="end1" depart="3150.527768" />
    <trip id="start1Toend1_25" type="connected" color="1,1,0" from="start1" to="end1" depart="3154.884586" />
    <trip id="start1Toend1_26" type="connected" color="1,1,0" from="start1" to="end1" depart="3162.263773" />
    <trip id="start2Toend1_38" type="connected" color="1,1,0" from="start2" to="end1" depart="3243.678489" />
    <trip id="start2Toend1_39" type="connected" color="1,1,0" from="start2" to="end1" depart="3245.169722" />
    <trip id="start1Toend1_27" type="connected" color="1,1,0" from="start1" to="end1" depart="3246.366935" />
    <trip id="start2Toend1_40" type="connected" color="1,1,0" from="start2" to="end1" depart="3256.781008" />
    <trip id="start2Toend1_41" type="connected" color="1,1,0" from="start2" to="end1" depart="3268.550217" />
    <trip id="start1Toend1_28" type="connected" color="1,1,0" from="start1" to="end1" depart="3277.380178" />
    <trip id="start2Toend1_42" type="connected" color="1,1,0" from="start2" to="end1" depart="3319.466241" />
    <trip id="start2Toend1_43" type="connected" color="1,1,0" from="start2" to="end1" depart="3342.901250" />
    <trip id="start2Toend1_44" type="connected" color="1,1,0" from="start2" to="end1" depart="3421.625823" />
    <trip id="start2Toend1_45" type="connected" color="1,1,0" from="start2" to="end1" depart="3449.647123" />
    <trip id="start2Toend1_46" type="connected" color="1,1,0" from="start2" to="end1" depart="3507.167586" />
    <trip id="start2Toend1_47" type="connected" color="1,1,0" from="start2" to="end1" depart="3541.823832" />
    <trip id="start2Toend1_48" type="connected" color="1,1,0" from="start2" to="end1" depart="3551.205432" />
    <trip id="start1Toend1_29" type="connected" color="1,1,0" from="start1" to="end1" depart="3563.377597" />
    <trip id="start2Toend1_49" type="connected" color="1,1,0" from="start2" to="end1" depart="3633.217420" />
    <trip id="start1Toend1_30" type="connected" color="1,1,0" from="start1" to="end1" depart="3644.869223" />
    <trip id="start2Toend1_50" type="connected" color="1,1,0" from="start2" to="end1" depart="3721.345918" />
    <trip id="start1Toend1_31" type="connected" color="1,1,0" from="start1" to="end1" depart="3782.930280" />
    <trip id="start1Toend1_32" type="connected" color="1,1,0" from="start1" to="end1" depart="3788.690394" />
    <trip id="start1Toend1_33" type="connected" color="1,1,0" from="start1" to="end1" depart="3864.613875" />
    <trip id="start2Toend1_51" type="connected" color="1,1,0" from="start2" to="end1" depart="3895.838237" />
    <trip id="start1Toend1_34" type="connected" color="1,1,0" from="start1" to="end1" depart="4053.745075" />
    <trip id="start1Toend1_35" type="connected" color="1,1,0" from="start1" to="end1" depart="4262.660437" />
    <trip id="start2Toend1_52" type="connected" color="1,1,0" from="start2" to="end1" depart="4312.086363" />
    <trip id="start2Toend1_53" type="connected" color="1,1,0" from="start2" to="end1" depart="4349.237439" />
    <trip id="start1Toend1_36" type="connected" color="1,1,0" from="start1" to="end1" depart="4419.575413" />
    <trip id="start1Toend1_37" type="connected" color="1,1,0" from="start1" to="end1" depart="4614.123567" />
    <trip id="start1Toend1_38" type="connected" color="1,1,0" from="start1" to="end1" depart="4615.897793" />
    <trip id="start2Toend1_54" type="connected" color="1,1,0" from="start2" to="end1" depart="4621.355639" />
    <trip id="start2Toend1_55" type="connected" color="1,1,0" from="start2" to="end1" depart="4669.981628" />
    <trip id="start1Toend1_39" type="connected" color="1,1,0" from="start1" to="end1" depart="4815.456540" />
    <trip id="start2Toend1_56" type="connected" color="1,1,0" from="start2" to="end1" depart="4893.360770" />
    <trip id="start2Toend1_57" type="connected" color="1,1,0" from="start2" to="end1" depart="4978.715793" />
    <trip id="start1Toend1_40" type="connected" color="1,1,0" from="start1" to="end1" depart="4984.341232" />
    <trip id="start1Toend1_41" type="connected" color="1,1,0" from="start1" to="end1" depart="5029.618311" />
    <trip id="start2Toend1_58" type="connected" color="1,1,0" from="start2" to="end1" depart="5042.866263" />
    <trip id="start1Toend1_42" type="connected" color="1,1,0" from="start1" to="end1" depart="5061.235148" />
    <trip id="start2Toend1_59" type="connected" color="1,1,0" from="start2" to="end1" depart="5167.732070" />
    <trip id="start2Toend1_60" type="connected" color="1,1,0" from="start2" to="end1" depart="5190.869398" />
    <trip id="start2Toend1_61" type="connected" color="1,1,0" from="start2" to="end1" depart="5308.497273" />
    <trip id="start1Toend1_43" type="connected" color="1,1,0" from="start1" to="end1" depart="5336.459231" />
    <trip id="start1Toend1_44" type="connected" color="1,1,0" from="start1" to="end1" depart="5347.507716" />
    <trip id="start1Toend1_45" type="connected" color="1,1,0" from="start1" to="end1" depart="5374.598407" />
    <trip id="start2Toend1_62" type="connected" color="1,1,0" from="start2" to="end1" depart="5378.310172" />
    <trip id="start1Toend1_46" type="connected" color="1,1,0" from="start1" to="end1" depart="5398.428129" />
    <trip id="start2Toend1_63" type="connected" color="1,1,0" from="start2" to="end1" depart="5401.481362" />
    <trip id="start2Toend1_64" type="connected" color="1,1,0" from="start2" to="end1" depart="5438.241699" />
    <trip id="start1Toend1_47" type="connected" color="1,1,0" from="start1" to="end1" depart="5502.035557" />
    <trip id="start2Toend1_65" type="connected" color="1,1,0" from="start2" to="end1" depart="5534.728113" />
    <trip id="start1Toend1_48" type="connected" color="1,1,0" from="start1" to="end1" depart="5575.405092" />
    <trip id="start1Toend1_49" type="connected" color="1,1,0" from="start1" to="end1" depart="5657.950936" />
    <trip id="start2Toend1_66" type="connected" color="1,1,0" from="start2" to="end1" depart="5676.058236" />
    <trip id="start2Toend1_67" type="connected" color="1,1,0" from="start2" to="end1" depart="5692.236628" />
    <trip id="start1Toend1_50" type="connected" color="1,1,0" from="start1" to="end1" depart="5766.009432" />
    <trip id="start1Toend1_51" type="connected" color="1,1,0" from="start1" to="end1" depart="5837.595760" />
    <trip id="start1Toend1_52" type="connected" color="1,1,0" from="start1" to="end1" depart="5918.446114" />
    <trip id="start1Toend1_53" type="connected" color="1,1,0" from="start1" to="end1" depart="5921.150416" />
    <trip id="start2Toend1_68" type="connected" color="1,1,0" from="start2" to="end1" depart="6072.522390" />
    <trip id="start2Toend1_69" type="connected" color="1,1,0" from="start2" to="end1" depart="6124.408490" />
    <trip id="start2Toend1_70" type="connected" color="1,1,0" from="start2" to="end1" depart="6162.558416" />
    <trip id="start2Toend1_71" type="connected" color="1,1,0" from="start2" to="end1" depart="6184.850485" />
    <trip id="start1Toend1_54" type="connected" color="1,1,0" from="start1" to="end1" depart="6194.665962" />
    <trip id="start1Toend1_55" type="connected" color="1,1,0" from="start1" to="end1" depart="6216.710692" />
    <trip id="start1Toend1_56" type="connected" color="1,1,0" from="start1" to="end1" depart="6287.159632" />
    <trip id="start2Toend1_72" type="connected" color="1,1,0" from="start2" to="end1" depart="6291.592566" />
    <trip id="start2Toend1_73" type="connected" color="1,1,0" from="start2" to="end1" depart="6357.944402" />
    <trip id="start1Toend1_57" type="connected" color="1,1,0" from="start1" to="end1" depart="6409.301338" />
    <trip id="start1Toend1_58" type="connected" color="1,1,0" from="start1" to="end1" depart="6478.112389" />
    <trip id="start2Toend1_74" type="connected" color="1,1,0" from="start2" to="end1" depart="6542.784323" />
    <trip id="start2Toend1_75" type="connected" color="1,1,0" from="start2" to="end1" depart="6578.283830" />
    <trip id="start2Toend1_76" type="connected" color="1,1,0" from="start2" to="end1" depart="6580.827110" />
    <trip id="start2Toend1_77" type="connected" color="1,1,0" from="start2" to="end1" depart="6603.219098" />
    <trip id="start2Toend1_78" type="connected" color="1,1,0" from="start2" to="end1" depart="6656.459659" />
    <trip id="start2Toend1_79" type="connected" color="1,1,0" from="start2" to="end1" depart="6695.388804" />
    <trip id="start2Toend1_80" type="connected" color="1,1,0" from="start2" to="end1" depart="6713.539372" />
    <trip id="start2Toend1_81" type="connected" color="1,1,0" from="start2" to="end1" depart="6780.308508" />
    <trip id="start2Toend1_82" type="connected" color="1,1,0" from="start2" to="end1" depart="6888.350079" />
    <trip id="start1Toend1_59" type="connected" color="1,1,0" from="start1" to="end1" depart="7014.053300" />
    <trip id="start2Toend1_83" type="connected" color="1,1,0" from="start2" to="end1" depart="7127.293862" />
    <trip id="start1Toend1_60" type="connected" color="1,1,0" from="start1" to="end1" depart="7136.788043" />
    <trip id="start2Toend1_84" type="connected" color="1,1,0" from="start2" to="end1" depart="7230.465370" />
    <trip id="start1Toend1_61" type="connected" color="1,1,0" from="start1" to="end1" depart="7459.312018" />
    <trip id="start1Toend1_62" type="connected" color="1,1,0" from="start1" to="end1" depart="7784.579359" />
    <trip id="start1Toend1_63" type="connected" color="1,1,0" from="start1" to="end1" depart="7837.014603" />
    <trip id="start1Toend1_64" type="connected" color="1,1,0" from="start1" to="end1" depart="7861.640717" />
    <trip id="start1Toend1_65" type="connected" color="1,1,0" from="start1" to="end1" depart="7874.118670" />
    <trip id="start2Toend1_85" type="connected" color="1,1,0" from="start2" to="end1" depart="7936.306917" />
    <trip id="start2Toend1_86" type="connected" color="1,1,0" from="start2" to="end1" depart="8089.232455" />
    <trip id="start2Toend1_87" type="connected" color="1,1,0" from="start2" to="end1" depart="8117.827063" />
    <trip id="start2Toend1_88" type="connected" color="1,1,0" from="start2" to="end1" depart="8155.909697" />
    <trip id="start1Toend1_66" type="connected" color="1,1,0" from="start1" to="end1" depart="8170.863520" />
    <trip id="start1Toend1_67" type="connected" color="1,1,0" from="start1" to="end1" depart="8195.674040" />
    <trip id="start1Toend1_68" type="connected" color="1,1,0" from="start1" to="end1" depart="8202.792298" />
    <trip id="start1Toend1_69" type="connected" color="1,1,0" from="start1" to="end1" depart="8307.110015" />
    <trip id="start1Toend1_70" type="connected" color="1,1,0" from="start1" to="end1" depart="8330.116776" />
    <trip id="start1Toend1_71" type="connected" color="1,1,0" from="start1" to="end1" depart="8346.950247" />
    <trip id="start2Toend1_89" type="connected" color="1,1,0" from="start2" to="end1" depart="8357.347062" />
    <trip id="start2Toend1_90" type="connected" color="1,1,0" from="start2" to="end1" depart="8460.004288" />
    <trip id="start1Toend1_72" type="connected" color="1,1,0" from="start1" to="end1" depart="8460.571629" />
    <trip id="start1Toend1_73" type="connected" color="1,1,0" from="start1" to="end1" depart="8498.145561" />
    <trip id="start2Toend1_91" type="connected" color="1,1,0" from="start2" to="end1" depart="8518.347921" />
    <trip id="start2Toend1_92" type="connected" color="1,1,0" from="start2" to="end1" depart="8518.421238" />
    <trip id="start1Toend1_74" type="connected" color="1,1,0" from="start1" to="end1" depart="8643.129118" />
    <trip id="start2Toend1_93" type="connected" color="1,1,0" from="start2" to="end1" depart="8777.499962" />
    <trip id="start1Toend1_75" type="connected" color="1,1,0" from="start1" to="end1" depart="8792.238152" />
    <trip id="start1Toend1_76" type="connected" color="1,1,0" from="start1" to="end1" depart="8819.207166" />
    <trip id="start2Toend1_94" type="connected" color="1,1,0" from="start2" to="end1" depart="8925.014195" />
    <trip id="start1Toend1_77" type="connected" color="1,1,0" from="start1" to="end1" depart="8935.330541" />
    <trip id="start1Toend1_78" type="connected" color="1,1,0" from="start1" to="end1" depart="8997.726617" />
    <trip id="start2Toend1_95" type="connected" color="1,1,0" from="start2" to="end1" depart="9010.315897" />
    <trip id="start1Toend1_79" type="connected" color="1,1,0" from="start1" to="end1" depart="9017.951132" />
    <trip id="start2Toend1_96" type="connected" color="1,1,0" from="start2" to="end1" depart="9026.259608" />
    <trip id="start2Toend1_97" type="connected" color="1,1,0" from="start2" to="end1" depart="9028.247188" />
    <trip id="start1Toend1_80" type="connected" color="1,1,0" from="start1" to="end1" depart="9070.402090" />
    <trip id="start2Toend1_98" type="connected" color="1,1,0" from="start2" to="end1" depart="9419.663643" />
    <trip id="start1Toend1_81" type="connected" color="1,1,0" from="start1" to="end1" depart="9440.867408" />
    <trip id="start2Toend1_99" type="connected" color="1,1,0" from="start2" to="end1" depart="9464.727878" />
    <trip id="start1Toend1_82" type="connected" color="1,1,0" from="start1" to="end1" depart="9475.295349" />
    <trip id="start2Toend1_100" type="connected" color="1,1,0" from="start2" to="end1" depart="9581.091383" />
    <trip id="start2Toend1_101" type="connected" color="1,1,0" from="start2" to="end1" depart="9722.393378" />
    <trip id="start2Toend1_102" type="connected" color="1,1,0" from="start2" to="end1" depart="9736.504802" />
    <trip id="start2Toend1_103" type="connected" color="1,1,0" from="start2" to="end1" depart="9808.793791" />
    <trip id="start1Toend1_83" type="connected" color="1,1,0" from="start1" to="end1" depart="9820.483682" />
    <trip id="start2Toend1_104" type="connected" color="1,1,0" from="start2" to="end1" depart="9842.319217" />
    <trip id="start1Toend1_84" type="connected" color="1,1,0" from="start1" to="end1" depart="9845.651950" />
    <trip id="start2Toend1_105" type="connected" color="1,1,0" from="start2" to="end1" depart="9887.094402" />
    <trip id="start1Toend1_85" type="connected" color="1,1,0" from="start1" to="end1" depart="9908.592169" />
    <trip id="start1Toend1_86" type="connected" color="1,1,0" from="start1" to="end1" depart="9975.170157" />
    <trip id="start2Toend1_106" type="connected" color="1,1,0" from="start2" to="end1" depart="10062.078167" />
    <trip id="start1Toend1_87" type="connected" color="1,1,0" from="start1" to="end1" depart="10138.823435" />
    <trip id="start2Toend1_107" type="connected" color="1,1,0" from="start2" to="end1" depart="10148.192828" />
    <trip id="start1Toend1_88" type="connected" color="1,1,0" from="start1" to="end1" depart="10222.829078" />
    <trip id="start1Toend1_89" type="connected" color="1,1,0" from="start1" to="end1" depart="10341.609768" />
    <trip id="start2Toend1_108" type="connected" color="1,1,0" from="start2" to="end1" depart="10377.252012" />
    <trip id="start2Toend1_109" type="connected" color="1,1,0" from="start2" to="end1" depart="10409.129989" />
    <trip id="start2Toend1_110" type="connected" color="1,1,0" from="start2" to="end1" depart="10416.330364" />
    <trip id="start2Toend1_111" type="connected" color="1,1,0" from="start2" to="end1" depart="10436.949255" />
    <trip id="start2Toend1_112" type="connected" color="1,1,0" from="start2" to="end1" depart="10456.956708" />
    <trip id="start1Toend1_90" type="connected" color="1,1,0" from="start1" to="end1" depart="10459.665564" />
    <trip id="start2Toend1_113" type="connected" color="1,1,0" from="start2" to="end1" depart="10532.344064" />
    <trip id="start2Toend1_114" type="connected" color="1,1,0" from="start2" to="end1" depart="10541.333841" />
    <trip id="start1Toend1_91" type="connected" color="1,1,0" from="start1" to="end1" depart="10577.507672" />
    <trip id="start1Toend1_92" type="connected" color="1,1,0" from="start1" to="end1" depart="10603.209499" />
    <trip id="start1Toend1_93" type="connected" color="1,1,0" from="start1" to="end1" depart="10659.718107" />
    <trip id="start2Toend1_115" type="connected" color="1,1,0" from="start2" to="end1" depart="10661.421615" />
    <trip id="start2Toend1_116" type="connected" color="1,1,0" from="start2" to="end1" depart="10737.879317" />
    <trip id="start2Toend1_117" type="connected" color="1,1,0" from="start2" to="end1" depart="10800.856337" />
    <trip id="start2Toend1_118" type="connected" color="1,1,0" from="start2" to="end1" depart="10815.828659" />
    <trip id="start1Toend1_94" type="connected" color="1,1,0" from="start1" to="end1" depart="10967.370644" />
    <trip id="start1Toend1_95" type="connected" color="1,1,0" from="start1" to="end1" depart="11013.709414" />
    <trip id="start1Toend1_96" type="connected" color="1,1,0" from="start1" to="end1" depart="11093.171707" />
    <trip id="start1Toend1_97" type="connected" color="1,1,0" from="start1" to="end1" depart="11122.087568" />
    <trip id="start1Toend1_98" type="connected" color="1,1,0" from="start1" to="end1" depart="11124.836920" />
    <trip id="start1Toend1_99" type="connected" color="1,1,0" from="start1" to="end1" depart="11246.701994" />
    <trip id="start1Toend1_100" type="connected" color="1,1,0" from="start1" to="end1" depart="11273.157644" />
    <trip id="start2Toend1_119" type="connected" color="1,1,0" from="start2" to="end1" depart="11290.798016" />
    <trip id="start1Toend1_101" type="connected" color="1,1,0" from="start1" to="end1" depart="11362.468960" />
    <trip id="start1Toend1_102" type="connected" color="1,1,0" from="start1" to="end1" depart="11383.451989" />
    <trip id="start1Toend1_103" type="connected" color="1,1,0" from="start1" to="end1" depart="11517.684613" />
    <trip id="start2Toend1_120" type="connected" color="1,1,0" from="start2" to="end1" depart="11552.900004" />
    <trip id="start2Toend1_121" type="connected" color="1,1,0" from="start2" to="end1" depart="11662.424327" />
    <trip id="start2Toend1_122" type="connected" color="1,1,0" from="start2" to="end1" depart="11689.385662" />
    <trip id="start2Toend1_123" type="connected" color="1,1,0" from="start2" to="end1" depart="11807.227380" />
    <trip id="start1Toend1_104" type="connected" color="1,1,0" from="start1" to="end1" depart="11882.699831" />
    <trip id="start1Toend1_105" type="connected" color="1,1,0" from="start1" to="end1" depart="11908.543479" />
    <trip id="start1Toend1_106" type="connected" color="1,1,0" from="start1" to="end1" depart="11934.507842" />
    <trip id="start1Toend1_107" type="connected" color="1,1,0" from="start1" to="end1" depart="11947.709001" />
    <trip id="start2Toend1_124" type="connected" color="1,1,0" from="start2" to="end1" depart="11977.549356" />
    <trip id="start1Toend1_108" type="connected" color="1,1,0" from="start1" to="end1" depart="12041.758828" />
    <trip id="start1Toend1_109" type="connected" color="1,1,0" from="start1" to="end1" depart="12049.738959" />
    <trip id="start1Toend1_110" type="connected" color="1,1,0" from="start1" to="end1" depart="12053.261449" />
    <trip id="start2Toend1_125" type="connected" color="1,1,0" from="start2" to="end1" depart="12061.760191" />
    <trip id="start1Toend1_111" type="connected" color="1,1,0" from="start1" to="end1" depart="12066.571450" />
    <trip id="start1Toend1_112" type="connected" color="1,1,0" from="start1" to="end1" depart="12103.667733" />
    <trip id="start2Toend1_126" type="connected" color="1,1,0" from="start2" to="end1" depart="12198.343641" />
    <trip id="start1Toend1_113" type="connected" color="1,1,0" from="start1" to="end1" depart="12199.395461" />
    <trip id="start1Toend1_114" type="connected" color="1,1,0" from="start1" to="end1" depart="12211.070568" />
    <trip id="start1Toend1_115" type="connected" color="1,1,0" from="start1" to="end1" depart="12234.706257" />
    <trip id="start2Toend1_127" type="connected" color="1,1,0" from="start2" to="end1" depart="12272.445304" />
    <trip id="start1Toend1_116" type="connected" color="1,1,0" from="start1" to="end1" depart="12355.152944" />
    <trip id="start1Toend1_117" type="connected" color="1,1,0" from="start1" to="end1" depart="12359.798475" />
    <trip id="start1Toend1_118" type="connected" color="1,1,0" from="start1" to="end1" depart="12450.143037" />
    <trip id="start2Toend1_128" type="connected" color="1,1,0" from="start2" to="end1" depart="12476.522597" />
    <trip id="start1Toend1_119" type="connected" color="1,1,0" from="start1" to="end1" depart="12490.622284" />
    <trip id="start1Toend1_120" type="connected" color="1,1,0" from="start1" to="end1" depart="12512.212179" />
    <trip id="start1Toend1_121" type="connected" color="1,1,0" from="start1" to="end1" depart="12530.307734" />
    <trip id="start2Toend1_129" type="connected" color="1,1,0" from="start2" to="end1" depart="12557.096894" />
    <trip id="start1Toend1_122" type="connected" color="1,1,0" from="start1" to="end1" depart="12662.146345" />
    <trip id="start2Toend1_130" type="connected" color="1,1,0" from="start2" to="end1" depart="12668.291698" />
    <trip id="start2Toend1_131" type="connected" color="1,1,0" from="start2" to="end1" depart="12670.344666" />
    <trip id="start2Toend1_132" type="connected" color="1,1,0" from="start2" to="end1" depart="12710.249808" />
    <trip id="start2Toend1_133" type="connected" color="1,1,0" from="start2" to="end1" depart="12830.952968" />
    <trip id="start2Toend1_134" type="connected" color="1,1,0" from="start2" to="end1" depart="12892.086883" />
    <trip id="start1Toend1_123" type="connected" color="1,1,0" from="start1" to="end1" depart="12901.733017" />
    <trip id="start2Toend1_135" type="connected" color="1,1,0" from="start2" to="end1" depart="12976.984136" />