<?xml version="1.0" encoding="UTF-8"?>

<routes>

	<route id="route0" edges="start1 end1" />
    <route id="route1" edges="start1 end2" />
    <route id="route2" edges="start2 end1" />
    <route id="route3" edges="start2 end2" />


    <vType id="conventional" vClass="passenger" sigma="1" maxSpeed="40.0" color="red" accel="10.0"/>
    <vType id="connected" vClass="passenger" tau="1.3" maxSpeed="28.00" lcCooperative="0.0" color="1,1,0" lcStrategic="1.0" accel="3.0" decel="1.5" emergencyDecel="4.5" lcSpeedGain="0.3" sigma="0.0" lcKeepRight="0.3"/>
    <vType id="connected_pCatchupFollower" vClass="passenger" emergencyDecel="4.5" length="5" tau="0.1" maxSpeed="28.00" color="1,1,0" accel="10.3" decel="1.7" sigma="0.0" minGap="2.0"/>
    <vType id="connected_pCatchup" vClass="passenger" tau="0.1" emergencyDecel="4.5" maxSpeed="28.00" color="0,0.8,0.3" accel="10.3" decel="1.7" sigma="0.0" minGap="2.0"/>
    <vType id="connected_pFollower" vClass="passenger" tau="0.1" maxSpeed="28.00" color="1,1,0" accel="10.3" decel="1.7" sigma="0.0"  minGap="2.0" emergencyDecel="4.5"/>
    <vType id="connected_pLeader" vClass="passenger" length="5" tau="1.3" maxSpeed="28.00" lcCooperative="0.0" color="1,1,0" lcStrategic="1.0" accel="2.0" decel="1.5" emergencyDecel="4.5" lcSpeedGain="0.3" sigma="0.0" lcKeepRight="0.3"/>
    


	
    <trip id="start1Toend1_0" type="connected" color="1,1,0" from="start1" to="end1" depart="0.000000" />
    <trip id="start2Toend1_0" type="connected" color="1,1,0" from="start2" to="end1" depart="0.000000" />
    <trip id="start1Toend2_0" type="connected" color="1,1,0" from="start1" to="end2" depart="0.000000" />
    <trip id="start2Toend2_0" type="connected" color="1,1,0" from="start2" to="end2" depart="0.000000" />
    <trip id="start1Toend1_1" type="connected" color="1,1,0" from="start1" to="end1" depart="29.184806" />
    <trip id="start2Toend2_1" type="connected" color="1,1,0" from="start2" to="end2" depart="32.431879" />
    <trip id="start1Toend1_2" type="connected" color="1,1,0" from="start1" to="end1" depart="48.965165" />
    <trip id="start1Toend1_3" type="connected" color="1,1,0" from="start1" to="end1" depart="170.630551" />
    <trip id="start1Toend2_1" type="connected" color="1,1,0" from="start1" to="end2" depart="199.497437" />
    <trip id="start2Toend1_1" type="connected" color="1,1,0" from="start2" to="end1" depart="200.906612" />
    <trip id="start2Toend1_2" type="connected" color="1,1,0" from="start2" to="end1" depart="270.425206" />
    <trip id="start2Toend1_3" type="connected" color="1,1,0" from="start2" to="end1" depart="270.621825" />
    <trip id="start1Toend1_4" type="connected" color="1,1,0" from="start1" to="end1" depart="286.273049" />
    <trip id="start2Toend1_4" type="connected" color="1,1,0" from="start2" to="end1" depart="305.821153" />
    <trip id="start1Toend1_5" type="connected" color="1,1,0" from="start1" to="end1" depart="333.345224" />
    <trip id="start1Toend2_2" type="connected" color="1,1,0" from="start1" to="end2" depart="383.318576" />
    <trip id="start1Toend2_3" type="connected" color="1,1,0" from="start1" to="end2" depart="482.066663" />
    <trip id="start2Toend2_2" type="connected" color="1,1,0" from="start2" to="end2" depart="483.399008" />
    <trip id="start2Toend2_3" type="connected" color="1,1,0" from="start2" to="end2" depart="496.448056" />
    <trip id="start2Toend2_4" type="connected" color="1,1,0" from="start2" to="end2" depart="520.947495" />
    <trip id="start1Toend1_6" type="connected" color="1,1,0" from="start1" to="end1" depart="525.882077" />
    <trip id="start1Toend1_7" type="connected" color="1,1,0" from="start1" to="end1" depart="540.098809" />
    <trip id="start2Toend1_5" type="connected" color="1,1,0" from="start2" to="end1" depart="540.417699" />
    <trip id="start1Toend1_8" type="connected" color="1,1,0" from="start1" to="end1" depart="548.054252" />
    <trip id="start1Toend1_9" type="connected" color="1,1,0" from="start1" to="end1" depart="559.520540" />
    <trip id="start1Toend1_10" type="connected" color="1,1,0" from="start1" to="end1" depart="603.648213" />
    <trip id="start1Toend2_4" type="connected" color="1,1,0" from="start1" to="end2" depart="622.662335" />
    <trip id="start2Toend1_6" type="connected" color="1,1,0" from="start2" to="end1" depart="628.809317" />
    <trip id="start2Toend1_7" type="connected" color="1,1,0" from="start2" to="end1" depart="677.763152" />
    <trip id="start1Toend2_5" type="connected" color="1,1,0" from="start1" to="end2" depart="720.609515" />
    <trip id="start1Toend2_6" type="connected" color="1,1,0" from="start1" to="end2" depart="729.846277" />
    <trip id="start1Toend1_11" type="connected" color="1,1,0" from="start1" to="end1" depart="821.608647" />
    <trip id="start2Toend1_8" type="connected" color="1,1,0" from="start2" to="end1" depart="830.361515" />
    <trip id="start1Toend2_7" type="connected" color="1,1,0" from="start1" to="end2" depart="844.488022" />
    <trip id="start2Toend2_5" type="connected" color="1,1,0" from="start2" to="end2" depart="885.759764" />
    <trip id="start2Toend2_6" type="connected" color="1,1,0" from="start2" to="end2" depart="895.427945" />
    <trip id="start1Toend2_8" type="connected" color="1,1,0" from="start1" to="end2" depart="902.935842" />
    <trip id="start2Toend1_9" type="connected" color="1,1,0" from="start2" to="end1" depart="903.967670" />
    <trip id="start1Toend2_9" type="connected" color="1,1,0" from="start1" to="end2" depart="909.324900" />
    <trip id="start1Toend2_10" type="connected" color="1,1,0" from="start1" to="end2" depart="910.567300" />
    <trip id="start1Toend2_11" type="connected" color="1,1,0" from="start1" to="end2" depart="938.618914" />
    <trip id="start2Toend2_7" type="connected" color="1,1,0" from="start2" to="end2" depart="957.033495" />
    <trip id="start1Toend1_12" type="connected" color="1,1,0" from="start1" to="end1" depart="1008.901514" />
    <trip id="start1Toend2_12" type="connected" color="1,1,0" from="start1" to="end2" depart="1065.431650" />
    <trip id="start1Toend1_13" type="connected" color="1,1,0" from="start1" to="end1" depart="1127.659077" />
    <trip id="start2Toend1_10" type="connected" color="1,1,0" from="start2" to="end1" depart="1165.567692" />
    <trip id="start1Toend2_13" type="connected" color="1,1,0" from="start1" to="end2" depart="1179.645354" />
    <trip id="start1Toend2_14" type="connected" color="1,1,0" from="start1" to="end2" depart="1189.817386" />
    <trip id="start2Toend2_8" type="connected" color="1,1,0" from="start2" to="end2" depart="1228.211402" />
    <trip id="start2Toend2_9" type="connected" color="1,1,0" from="start2" to="end2" depart="1249.735398" />
    <trip id="start1Toend1_14" type="connected" color="1,1,0" from="start1" to="end1" depart="1292.058971" />
    <trip id="start1Toend2_15" type="connected" color="1,1,0" from="start1" to="end2" depart="1306.557184" />
    <trip id="start2Toend1_11" type="connected" color="1,1,0" from="start2" to="end1" depart="1340.387383" />
    <trip id="start2Toend2_10" type="connected" color="1,1,0" from="start2" to="end2" depart="1364.268775" />
    <trip id="start1Toend2_16" type="connected" color="1,1,0" from="start1" to="end2" depart="1399.798590" />
    <trip id="start1Toend1_15" type="connected" color="1,1,0" from="start1" to="end1" depart="1473.634360" />
    <trip id="start2Toend2_11" type="connected" color="1,1,0" from="start2" to="end2" depart="1474.939047" />
    <trip id="start1Toend2_17" type="connected" color="1,1,0" from="start1" to="end2" depart="1485.072973" />
    <trip id="start2Toend2_12" type="connected" color="1,1,0" from="start2" to="end2" depart="1486.990232" />
    <trip id="start1Toend2_18" type="connected" color="1,1,0" from="start1" to="end2" depart="1489.258180" />
    <trip id="start1Toend2_19" type="connected" color="1,1,0" from="start1" to="end2" depart="1493.016437" />
    <trip id="start2Toend1_12" type="connected" color="1,1,0" from="start2" to="end1" depart="1504.227911" />
    <trip id="start1Toend1_16" type="connected" color="1,1,0" from="start1" to="end1" depart="1599.398059" />
    <trip id="start1Toend2_20" type="connected" color="1,1,0" from="start1" to="end2" depart="1633.109159" />
    <trip id="start1Toend1_17" type="connected" color="1,1,0" from="start1" to="end1" depart="1640.317584" />
    <trip id="start1Toend2_21" type="connected" color="1,1,0" from="start1" to="end2" depart="1647.945424" />
    <trip id="start2Toend1_13" type="connected" color="1,1,0" from="start2" to="end1" depart="1663.509252" />
    <trip id="start1Toend1_18" type="connected" color="1,1,0" from="start1" to="end1" depart="1669.523683" />
    <trip id="start1Toend2_22" type="connected" color="1,1,0" from="start1" to="end2" depart="1675.125165" />
    <trip id="start2Toend2_13" type="connected" color="1,1,0" from="start2" to="end2" depart="1696.076794" />
    <trip id="start1Toend2_23" type="connected" color="1,1,0" from="start1" to="end2" depart="1713.459185" />
    <trip id="start2Toend2_14" type="connected" color="1,1,0" from="start2" to="end2" depart="1724.714088" />
    <trip id="start2Toend2_15" type="connected" color="1,1,0" from="start2" to="end2" depart="1747.746281" />
    <trip id="start1Toend1_19" type="connected" color="1,1,0" from="start1" to="end1" depart="1805.650190" />
    <trip id="start1Toend2_24" type="connected" color="1,1,0" from="start1" to="end2" depart="1868.464552" />
    <trip id="start1Toend1_20" type="connected" color="1,1,0" from="start1" to="end1" depart="1891.969029" />
    <trip id="start2Toend1_14" type="connected" color="1,1,0" from="start2" to="end1" depart="1960.347700" />
    <trip id="start2Toend1_15" type="connected" color="1,1,0" from="start2" to="end1" depart="1998.281952" />
    <trip id="start1Toend1_21" type="connected" color="1,1,0" from="start1" to="end1" depart="2003.012070" />
    <trip id="start2Toend2_16" type="connected" color="1,1,0" from="start2" to="end2" depart="2034.225919" />
    <trip id="start2Toend2_17" type="connected" color="1,1,0" from="start2" to="end2" depart="2167.123659" />
    <trip id="start1Toend1_22" type="connected" color="1,1,0" from="start1" to="end1" depart="2194.528047" />
    <trip id="start2Toend2_18" type="connected" color="1,1,0" from="start2" to="end2" depart="2196.364603" />
    <trip id="start2Toend2_19" type="connected" color="1,1,0" from="start2" to="end2" depart="2210.617381" />
    <trip id="start1Toend1_23" type="connected" color="1,1,0" from="start1" to="end1" depart="2225.628771" />
    <trip id="start1Toend1_24" type="connected" color="1,1,0" from="start1" to="end1" depart="2225.671664" />
    <trip id="start2Toend2_20" type="connected" color="1,1,0" from="start2" to="end2" depart="2241.141327" />
    <trip id="start1Toend1_25" type="connected" color="1,1,0" from="start1" to="end1" depart="2248.609350" />
    <trip id="start1Toend1_26" type="connected" color="1,1,0" from="start1" to="end1" depart="2250.253646" />
    <trip id="start2Toend1_16" type="connected" color="1,1,0" from="start2" to="end1" depart="2298.105988" />
    <trip id="start1Toend2_25" type="connected" color="1,1,0" from="start1" to="end2" depart="2307.493194" />
    <trip id="start2Toend1_17" type="connected" color="1,1,0" from="start2" to="end1" depart="2322.152462" />
    <trip id="start2Toend1_18" type="connected" color="1,1,0" from="start2" to="end1" depart="2403.655951" />
    <trip id="start2Toend2_21" type="connected" color="1,1,0" from="start2" to="end2" depart="2406.877880" />
    <trip id="start1Toend1_27" type="connected" color="1,1,0" from="start1" to="end1" depart="2421.279523" />
    <trip id="start2Toend1_19" type="connected" color="1,1,0" from="start2" to="end1" depart="2445.748934" />
    <trip id="start1Toend1_28" type="connected" color="1,1,0" from="start1" to="end1" depart="2447.085767" />
    <trip id="start2Toend1_20" type="connected" color="1,1,0" from="start2" to="end1" depart="2521.028191" />
    <trip id="start1Toend1_29" type="connected" color="1,1,0" from="start1" to="end1" depart="2522.527221" />
    <trip id="start2Toend2_22" type="connected" color="1,1,0" from="start2" to="end2" depart="2526.447762" />
    <trip id="start2Toend1_21" type="connected" color="1,1,0" from="start2" to="end1" depart="2542.631122" />
    <trip id="start1Toend1_30" type="connected" color="1,1,0" from="start1" to="end1" depart="2556.339119" />
    <trip id="start1Toend1_31" type="connected" color="1,1,0" from="start1" to="end1" depart="2577.962008" />
    <trip id="start2Toend2_23" type="connected" color="1,1,0" from="start2" to="end2" depart="2580.587599" />
    <trip id="start2Toend1_22" type="connected" color="1,1,0" from="start2" to="end1" depart="2584.825167" />
    <trip id="start1Toend2_26" type="connected" color="1,1,0" from="start1" to="end2" depart="2593.535476" />
    <trip id="start1Toend1_32" type="connected" color="1,1,0" from="start1" to="end1" depart="2594.655418" />
    <trip id="start1Toend1_33" type="connected" color="1,1,0" from="start1" to="end1" depart="2603.884408" />
    <trip id="start2Toend1_23" type="connected" color="1,1,0" from="start2" to="end1" depart="2628.814538" />
    <trip id="start2Toend2_24" type="connected" color="1,1,0" from="start2" to="end2" depart="2632.084001" />
    <trip id="start2Toend1_24" type="connected" color="1,1,0" from="start2" to="end1" depart="2668.257683" />
    <trip id="start2Toend2_25" type="connected" color="1,1,0" from="start2" to="end2" depart="2697.843349" />
    <trip id="start2Toend1_25" type="connected" color="1,1,0" from="start2" to="end1" depart="2717.697380" />
    <trip id="start1Toend1_34" type="connected" color="1,1,0" from="start1" to="end1" depart="2736.968744" />
    <trip id="start1Toend1_35" type="connected" color="1,1,0" from="start1" to="end1" depart="2764.059974" />
    <trip id="start1Toend2_27" type="connected" color="1,1,0" from="start1" to="end2" depart="2773.232489" />
    <trip id="start2Toend1_26" type="connected" color="1,1,0" from="start2" to="end1" depart="2812.255277" />
    <trip id="start2Toend1_27" type="connected" color="1,1,0" from="start2" to="end1" depart="2847.645738" />
    <trip id="start1Toend2_28" type="connected" color="1,1,0" from="start1" to="end2" depart="2864.002134" />
    <trip id="start2Toend2_26" type="connected" color="1,1,0" from="start2" to="end2" depart="2872.215936" />
    <trip id="start1Toend1_36" type="connected" color="1,1,0" from="start1" to="end1" depart="2874.494332" />
    <trip id="start2Toend2_27" type="connected" color="1,1,0" from="start2" to="end2" depart="2881.139028" />
    <trip id="start1Toend2_29" type="connected" color="1,1,0" from="start1" to="end2" depart="2902.801938" />
    <trip id="start1Toend2_30" type="connected" color="1,1,0" from="start1" to="end2" depart="2920.707585" />
    <trip id="start1Toend1_37" type="connected" color="1,1,0" from="start1" to="end1" depart="2937.881362" />
    <trip id="start2Toend2_28" type="connected" color="1,1,0" from="start2" to="end2" depart="3007.499550" />
    <trip id="start1Toend1_38" type="connected" color="1,1,0" from="start1" to="end1" depart="3024.959525" />
    <trip id="start1Toend2_31" type="connected" color="1,1,0" from="start1" to="end2" depart="3042.666904" />
    <trip id="start2Toend2_29" type="connected" color="1,1,0" from="start2" to="end2" depart="3115.805403" />
    <trip id="start1Toend1_39" type="connected" color="1,1,0" from="start1" to="end1" depart="3167.518107" />
    <trip id="start2Toend1_28" type="connected" color="1,1,0" from="start2" to="end1" depart="3239.482435" />
    <trip id="start1Toend2_32" type="connected" color="1,1,0" from="start1" to="end2" depart="3306.549976" />
    <trip id="start1Toend2_33" type="connected" color="1,1,0" from="start1" to="end2" depart="3327.115156" />
    <trip id="start2Toend1_29" type="connected" color="1,1,0" from="start2" to="end1" depart="3341.032137" />
    <trip id="start2Toend1_30" type="connected" color="1,1,0" from="start2" to="end1" depart="3348.932063" />
    <trip id="start2Toend1_31" type="connected" color="1,1,0" from="start2" to="end1" depart="3359.271858" />
    <trip id="start1Toend2_34" type="connected" color="1,1,0" from="start1" to="end2" depart="3362.116135" />
    <trip id="start2Toend1_32" type="connected" color="1,1,0" from="start2" to="end1" depart="3364.080207" />
    <trip id="start2Toend2_30" type="connected" color="1,1,0" from="start2" to="end2" depart="3372.189957" />
    <trip id="start1Toend2_35" type="connected" color="1,1,0" from="start1" to="end2" depart="3373.496140" />
    <trip id="start1Toend2_36" type="connected" color="1,1,0" from="start1" to="end2" depart="3421.668284" />
    <trip id="start1Toend1_40" type="connected" color="1,1,0" from="start1" to="end1" depart="3445.894353" />
    <trip id="start1Toend2_37" type="connected" color="1,1,0" from="start1" to="end2" depart="3450.789067" />
    <trip id="start1Toend2_38" type="connected" color="1,1,0" from="start1" to="end2" depart="3469.178372" />
    <trip id="start1Toend2_39" type="connected" color="1,1,0" from="start1" to="end2" depart="3470.159193" />
    <trip id="start2Toend1_33" type="connected" color="1,1,0" from="start2" to="end1" depart="3470.717049" />
    <trip id="start2Toend1_34" type="connected" color="1,1,0" from="start2" to="end1" depart="3541.548523" />
    <trip id="start2Toend2_31" type="connected" color="1,1,0" from="start2" to="end2" depart="3542.258970" />
    <trip id="start1Toend1_41" type="connected" color="1,1,0" from="start1" to="end1" depart="3568.148733" />
    <trip id="start1Toend1_42" type="connected" color="1,1,0" from="start1" to="end1" depart="3615.737417" />
    <trip id="start2Toend2_32" type="connected" color="1,1,0" from="start2" to="end2" depart="3637.908701" />
    <trip id="start2Toend1_35" type="connected" color="1,1,0" from="start2" to="end1" depart="3656.679425" />
    <trip id="start2Toend1_36" type="connected" color="1,1,0" from="start2" to="end1" depart="3715.228006" />
    <trip id="start2Toend1_37" type="connected" color="1,1,0" from="start2" to="end1" depart="3716.689754" />
    <trip id="start1Toend1_43" type="connected" color="1,1,0" from="start1" to="end1" depart="3758.668863" />
    <trip id="start1Toend2_40" type="connected" color="1,1,0" from="start1" to="end2" depart="3798.178521" />
    <trip id="start2Toend1_38" type="connected" color="1,1,0" from="start2" to="end1" depart="3821.448452" />
    <trip id="start1Toend2_41" type="connected" color="1,1,0" from="start1" to="end2" depart="3840.267530" />
    <trip id="start2Toend1_39" type="connected" color="1,1,0" from="start2" to="end1" depart="3849.001749" />
    <trip id="start2Toend2_33" type="connected" color="1,1,0" from="start2" to="end2" depart="3861.192322" />
    <trip id="start1Toend1_44" type="connected" color="1,1,0" from="start1" to="end1" depart="3869.120729" />
    <trip id="start2Toend1_40" type="connected" color="1,1,0" from="start2" to="end1" depart="3879.191500" />
    <trip id="start1Toend1_45" type="connected" color="1,1,0" from="start1" to="end1" depart="3937.367378" />
    <trip id="start1Toend1_46" type="connected" color="1,1,0" from="start1" to="end1" depart="3953.448241" />
    <trip id="start1Toend1_47" type="connected" color="1,1,0" from="start1" to="end1" depart="3973.151893" />
    <trip id="start2Toend2_34" type="connected" color="1,1,0" from="start2" to="end2" depart="3983.382145" />
    <trip id="start1Toend2_42" type="connected" color="1,1,0" from="start1" to="end2" depart="4009.255025" />
    <trip id="start2Toend1_41" type="connected" color="1,1,0" from="start2" to="end1" depart="4064.655383" />
    <trip id="start1Toend1_48" type="connected" color="1,1,0" from="start1" to="end1" depart="4111.012041" />
    <trip id="start1Toend2_43" type="connected" color="1,1,0" from="start1" to="end2" depart="4167.240605" />
    <trip id="start2Toend1_42" type="connected" color="1,1,0" from="start2" to="end1" depart="4167.294978" />
    <trip id="start1Toend2_44" type="connected" color="1,1,0" from="start1" to="end2" depart="4217.443612" />
    <trip id="start1Toend1_49" type="connected" color="1,1,0" from="start1" to="end1" depart="4217.860960" />
    <trip id="start2Toend1_43" type="connected" color="1,1,0" from="start2" to="end1" depart="4244.737835" />
    <trip id="start2Toend2_35" type="connected" color="1,1,0" from="start2" to="end2" depart="4263.925870" />
    <trip id="start1Toend2_45" type="connected" color="1,1,0" from="start1" to="end2" depart="4281.049509" />
    <trip id="start1Toend1_50" type="connected" color="1,1,0" from="start1" to="end1" depart="4295.117484" />
    <trip id="start1Toend1_51" type="connected" color="1,1,0" from="start1" to="end1" depart="4311.250490" />
    <trip id="start2Toend1_44" type="connected" color="1,1,0" from="start2" to="end1" depart="4317.354401" />
    <trip id="start2Toend1_45" type="connected" color="1,1,0" from="start2" to="end1" depart="4332.741655" />
    <trip id="start2Toend1_46" type="connected" color="1,1,0" from="start2" to="end1" depart="4351.030127" />
    <trip id="start1Toend1_52" type="connected" color="1,1,0" from="start1" to="end1" depart="4379.339975" />
    <trip id="start2Toend1_47" type="connected" color="1,1,0" from="start2" to="end1" depart="4385.086139" />
    <trip id="start1Toend2_46" type="connected" color="1,1,0" from="start1" to="end2" depart="4423.601910" />
    <trip id="start1Toend2_47" type="connected" color="1,1,0" from="start1" to="end2" depart="4447.930138" />
    <trip id="start1Toend1_53" type="connected" color="1,1,0" from="start1" to="end1" depart="4486.448083" />
    <trip id="start1Toend2_48" type="connected" color="1,1,0" from="start1" to="end2" depart="4507.754632" />
    <trip id="start2Toend2_36" type="connected" color="1,1,0" from="start2" to="end2" depart="4538.168179" />
    <trip id="start2Toend2_37" type="connected" color="1,1,0" from="start2" to="end2" depart="4569.610668" />
    <trip id="start2Toend1_48" type="connected" color="1,1,0" from="start2" to="end1" depart="4597.918516" />
    <trip id="start2Toend2_38" type="connected" color="1,1,0" from="start2" to="end2" depart="4604.926537" />
    <trip id="start2Toend2_39" type="connected" color="1,1,0" from="start2" to="end2" depart="4711.085607" />
    <trip id="start1Toend2_49" type="connected" color="1,1,0" from="start1" to="end2" depart="4746.727535" />
    <trip id="start2Toend1_49" type="connected" color="1,1,0" from="start2" to="end1" depart="4786.695737" />
    <trip id="start1Toend1_54" type="connected" color="1,1,0" from="start1" to="end1" depart="4839.742937" />
    <trip id="start1Toend1_55" type="connected" color="1,1,0" from="start1" to="end1" depart="4915.222648" />
    <trip id="start2Toend2_40" type="connected" color="1,1,0" from="start2" to="end2" depart="4923.038454" />
    <trip id="start1Toend2_50" type="connected" color="1,1,0" from="start1" to="end2" depart="4974.318316" />
    <trip id="start1Toend2_51" type="connected" color="1,1,0" from="start1" to="end2" depart="4985.880055" />
    <trip id="start1Toend1_56" type="connected" color="1,1,0" from="start1" to="end1" depart="4991.452361" />
    <trip id="start1Toend2_52" type="connected" color="1,1,0" from="start1" to="end2" depart="5000.646260" />
    <trip id="start1Toend1_57" type="connected" color="1,1,0" from="start1" to="end1" depart="5032.417543" />
    <trip id="start2Toend2_41" type="connected" color="1,1,0" from="start2" to="end2" depart="5033.522840" />
    <trip id="start1Toend1_58" type="connected" color="1,1,0" from="start1" to="end1" depart="5040.668825" />
    <trip id="start1Toend2_53" type="connected" color="1,1,0" from="start1" to="end2" depart="5040.730448" />
    <trip id="start2Toend1_50" type="connected" color="1,1,0" from="start2" to="end1" depart="5145.184216" />
    <trip id="start2Toend2_42" type="connected" color="1,1,0" from="start2" to="end2" depart="5198.774629" />
    <trip id="start1Toend2_54" type="connected" color="1,1,0" from="start1" to="end2" depart="5205.021351" />
    <trip id="start2Toend1_51" type="connected" color="1,1,0" from="start2" to="end1" depart="5230.485972" />
    <trip id="start2Toend1_52" type="connected" color="1,1,0" from="start2" to="end1" depart="5300.387398" />
    <trip id="start2Toend2_43" type="connected" color="1,1,0" from="start2" to="end2" depart="5336.460376" />
    <trip id="start2Toend2_44" type="connected" color="1,1,0" from="start2" to="end2" depart="5336.474847" />
    <trip id="start1Toend1_59" type="connected" color="1,1,0" from="start1" to="end1" depart="5346.991587" />
    <trip id="start1Toend1_60" type="connected" color="1,1,0" from="start1" to="end1" depart="5357.485220" />
    <trip id="start2Toend1_53" type="connected" color="1,1,0" from="start2" to="end1" depart="5400.873577" />
    <trip id="start1Toend2_55" type="connected" color="1,1,0" from="start1" to="end2" depart="5411.928858" />
    <trip id="start2Toend2_45" type="connected" color="1,1,0" from="start2" to="end2" depart="5432.312913" />
    <trip id="start1Toend2_56" type="connected" color="1,1,0" from="start1" to="end2" depart="5437.031487" />
    <trip id="start1Toend2_57" type="connected" color="1,1,0" from="start1" to="end2" depart="5442.585501" />
    <trip id="start2Toend1_54" type="connected" color="1,1,0" from="start2" to="end1" depart="5460.903047" />
    <trip id="start2Toend2_46" type="connected" color="1,1,0" from="start2" to="end2" depart="5461.325217" />
    <trip id="start1Toend1_61" type="connected" color="1,1,0" from="start1" to="end1" depart="5596.656114" />
    <trip id="start1Toend2_58" type="connected" color="1,1,0" from="start1" to="end2" depart="5635.037754" />
    <trip id="start1Toend2_59" type="connected" color="1,1,0" from="start1" to="end2" depart="5679.144932" />
    <trip id="start1Toend2_60" type="connected" color="1,1,0" from="start1" to="end2" depart="5708.218237" />
    <trip id="start2Toend2_47" type="connected" color="1,1,0" from="start2" to="end2" depart="5713.959941" />
    <trip id="start1Toend1_62" type="connected" color="1,1,0" from="start1" to="end1" depart="5745.097819" />
    <trip id="start2Toend2_48" type="connected" color="1,1,0" from="start2" to="end2" depart="5757.969421" />
    <trip id="start1Toend2_61" type="connected" color="1,1,0" from="start1" to="end2" depart="5776.321644" />
    <trip id="start2Toend1_55" type="connected" color="1,1,0" from="start2" to="end1" depart="5783.023535" />
    <trip id="start1Toend1_63" type="connected" color="1,1,0" from="start1" to="end1" depart="5784.299935" />
    <trip id="start1Toend2_62" type="connected" color="1,1,0" from="start1" to="end2" depart="5791.295484" />
    <trip id="start1Toend2_63" type="connected" color="1,1,0" from="start1" to="end2" depart="5799.514758" />
    <trip id="start1Toend1_64" type="connected" color="1,1,0" from="start1" to="end1" depart="5802.247071" />
    <trip id="start1Toend1_65" type="connected" color="1,1,0" from="start1" to="end1" depart="5816.138051" />
    <trip id="start1Toend2_64" type="connected" color="1,1,0" from="start1" to="end2" depart="5878.847990" />
    <trip id="start2Toend2_49" type="connected" color="1,1,0" from="start2" to="end2" depart="5887.422045" />
    <trip id="start2Toend2_50" type="connected" color="1,1,0" from="start2" to="end2" depart="5890.676904" />
    <trip id="start1Toend2_65" type="connected" color="1,1,0" from="start1" to="end2" depart="5902.981090" />
    <trip id="start1Toend2_66" type="connected" color="1,1,0" from="start1" to="end2" depart="5911.884147" />
    <trip id="start1Toend2_67" type="connected" color="1,1,0" from="start1" to="end2" depart="5922.274732" />
    <trip id="start2Toend1_56" type="connected" color="1,1,0" from="start2" to="end1" depart="5923.826761" />
    <trip id="start2Toend2_51" type="connected" color="1,1,0" from="start2" to="end2" depart="5924.627926" />
    <trip id="start1Toend1_66" type="connected" color="1,1,0" from="start1" to="end1" depart="5938.753302" />
    <trip id="start1Toend1_67" type="connected" color="1,1,0" from="start1" to="end1" depart="6024.354527" />
    <trip id="start2Toend1_57" type="connected" color="1,1,0" from="start2" to="end1" depart="6050.469214" />
    <trip id="start2Toend1_58" type="connected" color="1,1,0" from="start2" to="end1" depart="6089.122219" />
    <trip id="start2Toend2_52" type="connected" color="1,1,0" from="start2" to="end2" depart="6093.711745" />
    <trip id="start2Toend1_59" type="connected" color="1,1,0" from="start2" to="end1" depart="6183.584251" />
    <trip id="start1Toend2_68" type="connected" color="1,1,0" from="start1" to="end2" depart="6201.847646" />
    <trip id="start1Toend2_69" type="connected" color="1,1,0" from="start1" to="end2" depart="6231.910836" />
    <trip id="start2Toend2_53" type="connected" color="1,1,0" from="start2" to="end2" depart="6234.131999" />
    <trip id="start2Toend2_54" type="connected" color="1,1,0" from="start2" to="end2" depart="6237.775613" />
    <trip id="start2Toend1_60" type="connected" color="1,1,0" from="start2" to="end1" depart="6255.552289" />
    <trip id="start2Toend2_55" type="connected" color="1,1,0" from="start2" to="end2" depart="6260.066231" />
    <trip id="start2Toend2_56" type="connected" color="1,1,0" from="start2" to="end2" depart="6263.603203" />
    <trip id="start2Toend2_57" type="connected" color="1,1,0" from="start2" to="end2" depart="6281.845228" />
    <trip id="start2Toend2_58" type="connected" color="1,1,0" from="start2" to="end2" depart="6317.037979" />
    <trip id="start1Toend1_68" type="connected" color="1,1,0" from="start1" to="end1" depart="6342.348743" />
    <trip id="start1Toend2_70" type="connected" color="1,1,0" from="start1" to="end2" depart="6345.454800" />
    <trip id="start1Toend1_69" type="connected" color="1,1,0" from="start1" to="end1" depart="6363.984118" />