<?xml version="1.0" encoding="UTF-8"?>

<routes>

	<route id="route0" edges="start1 end1" />
    <route id="route1" edges="start1 end2" />
    <route id="route2" edges="start2 end1" />
    <route id="route3" edges="start2 end2" />


    <vType id="conventional" vClass="passenger" sigma="1" maxSpeed="40.0" color="red" accel="10.0"/>
    <vType id="connected" vClass="passenger" tau="1.3" maxSpeed="28.00" lcCooperative="0.0" color="1,1,0" lcStrategic="1.0" accel="3.0" decel="1.5" emergencyDecel="4.5" lcSpeedGain="0.3" sigma="0.0" lcKeepRight="0.3"/>
    <vType id="connected_pCatchupFollower" vClass="passenger" emergencyDecel="4.5" length="5" tau="0.1" maxSpeed="28.00" color="1,1,0" accel="10.3" decel="1.7" sigma="0.0" minGap="2.0"/>
    <vType id="connected_pCatchup" vClass="passenger" tau="0.1" emergencyDecel="4.5" maxSpeed="28.00" color="0,0.8,0.3" accel="10.3" decel="1.7" sigma="0.0" minGap="2.0"/>
    <vType id="connected_pFollower" vClass="passenger" tau="0.1" maxSpeed="28.00" color="1,1,0" accel="10.3" decel="1.7" sigma="0.0"  minGap="2.0" emergencyDecel="4.5"/>
    <vType id="connected_pLeader" vClass="passenger" length="5" tau="1.3" maxSpeed="28.00" lcCooperative="0.0" color="1,1,0" lcStrategic="1.0" accel="2.0" decel="1.5" emergencyDecel="4.5" lcSpeedGain="0.3" sigma="0.0" lcKeepRight="0.3"/>
    


	
    <trip id="start1Toend1_0" type="connected" color="1,1,0" from="start1" to="end1" depart="0.000000" />
    <trip id="start2Toend1_0" type="connected" color="1,1,0" from="start2" to="end1" depart="0.000000" />
    <trip id="start1Toend2_0" type="connected" color="1,1,0" from="start1" to="end2" depart="0.000000" />
    <trip id="start2Toend2_0" type="connected" color="1,1,0" from="start2" to="end2" depart="0.000000" />
    <trip id="start2Toend1_1" type="connected" color="1,1,0" from="start2" to="end1" depart="15.060566" />
    <trip id="start2Toend2_1" type="connected" color="1,1,0" from="start2" to="end2" depart="27.688139" />
    <trip id="start2Toend2_2" type="connected" color="1,1,0" from="start2" to="end2" depart="51.657564" />
    <trip id="start1Toend1_1" type="connected" color="1,1,0" from="start1" to="end1" depart="72.981245" />
    <trip id="start1Toend2_1" type="connected" color="1,1,0" from="start1" to="end2" depart="98.962760" />
    <trip id="start1Toend2_2" type="connected" color="1,1,0" from="start1" to="end2" depart="107.323692" />
    <trip id="start2Toend2_3" type="connected" color="1,1,0" from="start2" to="end2" depart="143.339422" />
    <trip id="start1Toend2_3" type="connected" color="1,1,0" from="start1" to="end2" depart="154.669130" />
    <trip id="start1Toend1_2" type="connected" color="1,1,0" from="start1" to="end1" depart="203.437213" />
    <trip id="start2Toend2_4" type="connected" color="1,1,0" from="start2" to="end2" depart="210.513151" />
    <trip id="start2Toend1_2" type="connected" color="1,1,0" from="start2" to="end1" depart="221.358233" />
    <trip id="start1Toend2_4" type="connected" color="1,1,0" from="start1" to="end2" depart="231.628328" />
    <trip id="start2Toend2_5" type="connected" color="1,1,0" from="start2" to="end2" depart="239.112089" />
    <trip id="start1Toend1_3" type="connected" color="1,1,0" from="start1" to="end1" depart="251.111902" />
    <trip id="start2Toend2_6" type="connected" color="1,1,0" from="start2" to="end2" depart="260.397600" />
    <trip id="start1Toend1_4" type="connected" color="1,1,0" from="start1" to="end1" depart="265.658135" />
    <trip id="start1Toend2_5" type="connected" color="1,1,0" from="start1" to="end2" depart="275.805995" />
    <trip id="start1Toend1_5" type="connected" color="1,1,0" from="start1" to="end1" depart="292.511479" />
    <trip id="start1Toend1_6" type="connected" color="1,1,0" from="start1" to="end1" depart="295.509269" />
    <trip id="start2Toend1_3" type="connected" color="1,1,0" from="start2" to="end1" depart="331.870955" />
    <trip id="start2Toend2_7" type="connected" color="1,1,0" from="start2" to="end2" depart="337.738422" />
    <trip id="start1Toend2_6" type="connected" color="1,1,0" from="start1" to="end2" depart="350.245109" />
    <trip id="start2Toend2_8" type="connected" color="1,1,0" from="start2" to="end2" depart="350.666656" />
    <trip id="start1Toend2_7" type="connected" color="1,1,0" from="start1" to="end2" depart="357.537112" />
    <trip id="start1Toend1_7" type="connected" color="1,1,0" from="start1" to="end1" depart="372.269101" />
    <trip id="start2Toend2_9" type="connected" color="1,1,0" from="start2" to="end2" depart="374.034350" />
    <trip id="start2Toend1_4" type="connected" color="1,1,0" from="start2" to="end1" depart="413.801627" />
    <trip id="start1Toend1_8" type="connected" color="1,1,0" from="start1" to="end1" depart="417.905869" />
    <trip id="start1Toend1_9" type="connected" color="1,1,0" from="start1" to="end1" depart="429.875259" />
    <trip id="start1Toend2_8" type="connected" color="1,1,0" from="start1" to="end2" depart="454.793150" />
    <trip id="start2Toend1_5" type="connected" color="1,1,0" from="start2" to="end1" depart="465.341014" />
    <trip id="start1Toend1_10" type="connected" color="1,1,0" from="start1" to="end1" depart="470.865324" />
    <trip id="start2Toend2_10" type="connected" color="1,1,0" from="start2" to="end2" depart="475.657400" />
    <trip id="start1Toend2_9" type="connected" color="1,1,0" from="start1" to="end2" depart="478.858433" />
    <trip id="start2Toend2_11" type="connected" color="1,1,0" from="start2" to="end2" depart="483.656729" />
    <trip id="start2Toend2_12" type="connected" color="1,1,0" from="start2" to="end2" depart="497.405155" />
    <trip id="start1Toend1_11" type="connected" color="1,1,0" from="start1" to="end1" depart="535.002192" />
    <trip id="start2Toend1_6" type="connected" color="1,1,0" from="start2" to="end1" depart="544.833727" />
    <trip id="start2Toend2_13" type="connected" color="1,1,0" from="start2" to="end2" depart="570.896405" />
    <trip id="start1Toend2_10" type="connected" color="1,1,0" from="start1" to="end2" depart="572.229774" />
    <trip id="start2Toend1_7" type="connected" color="1,1,0" from="start2" to="end1" depart="592.603984" />
    <trip id="start1Toend2_11" type="connected" color="1,1,0" from="start1" to="end2" depart="602.452983" />
    <trip id="start1Toend1_12" type="connected" color="1,1,0" from="start1" to="end1" depart="609.262357" />
    <trip id="start1Toend2_12" type="connected" color="1,1,0" from="start1" to="end2" depart="610.086514" />
    <trip id="start2Toend2_14" type="connected" color="1,1,0" from="start2" to="end2" depart="617.708166" />
    <trip id="start2Toend2_15" type="connected" color="1,1,0" from="start2" to="end2" depart="641.869662" />
    <trip id="start1Toend2_13" type="connected" color="1,1,0" from="start1" to="end2" depart="643.403931" />
    <trip id="start2Toend2_16" type="connected" color="1,1,0" from="start2" to="end2" depart="648.080815" />
    <trip id="start2Toend2_17" type="connected" color="1,1,0" from="start2" to="end2" depart="658.340381" />
    <trip id="start1Toend1_13" type="connected" color="1,1,0" from="start1" to="end1" depart="665.161324" />
    <trip id="start2Toend2_18" type="connected" color="1,1,0" from="start2" to="end2" depart="670.247747" />
    <trip id="start2Toend2_19" type="connected" color="1,1,0" from="start2" to="end2" depart="673.864774" />
    <trip id="start1Toend2_14" type="connected" color="1,1,0" from="start1" to="end2" depart="679.373018" />
    <trip id="start1Toend2_15" type="connected" color="1,1,0" from="start1" to="end2" depart="680.107443" />
    <trip id="start2Toend1_8" type="connected" color="1,1,0" from="start2" to="end1" depart="696.642577" />
    <trip id="start1Toend2_16" type="connected" color="1,1,0" from="start1" to="end2" depart="707.475541" />
    <trip id="start1Toend1_14" type="connected" color="1,1,0" from="start1" to="end1" depart="716.257094" />
    <trip id="start2Toend1_9" type="connected" color="1,1,0" from="start2" to="end1" depart="718.891610" />
    <trip id="start2Toend2_20" type="connected" color="1,1,0" from="start2" to="end2" depart="719.121131" />
    <trip id="start1Toend2_17" type="connected" color="1,1,0" from="start1" to="end2" depart="726.219941" />
    <trip id="start1Toend1_15" type="connected" color="1,1,0" from="start1" to="end1" depart="735.595521" />
    <trip id="start1Toend1_16" type="connected" color="1,1,0" from="start1" to="end1" depart="744.919138" />
    <trip id="start1Toend1_17" type="connected" color="1,1,0" from="start1" to="end1" depart="754.192757" />
    <trip id="start2Toend1_10" type="connected" color="1,1,0" from="start2" to="end1" depart="763.795522" />
    <trip id="start1Toend2_18" type="connected" color="1,1,0" from="start1" to="end2" depart="772.812333" />
    <trip id="start1Toend1_18" type="connected" color="1,1,0" from="start1" to="end1" depart="779.098497" />
    <trip id="start1Toend1_19" type="connected" color="1,1,0" from="start1" to="end1" depart="779.931182" />
    <trip id="start2Toend2_21" type="connected" color="1,1,0" from="start2" to="end2" depart="793.658346" />
    <trip id="start2Toend2_22" type="connected" color="1,1,0" from="start2" to="end2" depart="795.845369" />
    <trip id="start1Toend2_19" type="connected" color="1,1,0" from="start1" to="end2" depart="815.862348" />
    <trip id="start2Toend1_11" type="connected" color="1,1,0" from="start2" to="end1" depart="816.160838" />
    <trip id="start1Toend2_20" type="connected" color="1,1,0" from="start1" to="end2" depart="844.196204" />
    <trip id="start1Toend1_20" type="connected" color="1,1,0" from="start1" to="end1" depart="845.191640" />
    <trip id="start1Toend1_21" type="connected" color="1,1,0" from="start1" to="end1" depart="846.229225" />
    <trip id="start1Toend2_21" type="connected" color="1,1,0" from="start1" to="end2" depart="852.481167" />
    <trip id="start2Toend2_23" type="connected" color="1,1,0" from="start2" to="end2" depart="857.618880" />
    <trip id="start1Toend2_22" type="connected" color="1,1,0" from="start1" to="end2" depart="882.268546" />
    <trip id="start2Toend2_24" type="connected" color="1,1,0" from="start2" to="end2" depart="891.775187" />
    <trip id="start2Toend1_12" type="connected" color="1,1,0" from="start2" to="end1" depart="909.359813" />
    <trip id="start1Toend2_23" type="connected" color="1,1,0" from="start1" to="end2" depart="924.357517" />
    <trip id="start2Toend2_25" type="connected" color="1,1,0" from="start2" to="end2" depart="950.085554" />
    <trip id="start1Toend1_22" type="connected" color="1,1,0" from="start1" to="end1" depart="953.138273" />
    <trip id="start1Toend1_23" type="connected" color="1,1,0" from="start1" to="end1" depart="953.249972" />
    <trip id="start2Toend1_13" type="connected" color="1,1,0" from="start2" to="end1" depart="964.219056" />
    <trip id="start2Toend2_26" type="connected" color="1,1,0" from="start2" to="end2" depart="974.674801" />
    <trip id="start1Toend2_24" type="connected" color="1,1,0" from="start1" to="end2" depart="980.236628" />
    <trip id="start1Toend2_25" type="connected" color="1,1,0" from="start1" to="end2" depart="983.927295" />
    <trip id="start2Toend2_27" type="connected" color="1,1,0" from="start2" to="end2" depart="985.161129" />
    <trip id="start2Toend2_28" type="connected" color="1,1,0" from="start2" to="end2" depart="989.755106" />
    <trip id="start2Toend1_14" type="connected" color="1,1,0" from="start2" to="end1" depart="1004.100047" />
    <trip id="start2Toend1_15" type="connected" color="1,1,0" from="start2" to="end1" depart="1014.020075" />
    <trip id="start2Toend2_29" type="connected" color="1,1,0" from="start2" to="end2" depart="1023.263931" />
    <trip id="start1Toend1_24" type="connected" color="1,1,0" from="start1" to="end1" depart="1028.349493" />
    <trip id="start2Toend2_30" type="connected" color="1,1,0" from="start2" to="end2" depart="1033.225323" />
    <trip id="start2Toend1_16" type="connected" color="1,1,0" from="start2" to="end1" depart="1036.897157" />
    <trip id="start1Toend1_25" type="connected" color="1,1,0" from="start1" to="end1" depart="1038.151780" />
    <trip id="start1Toend1_26" type="connected" color="1,1,0" from="start1" to="end1" depart="1038.805304" />
    <trip id="start1Toend1_27" type="connected" color="1,1,0" from="start1" to="end1" depart="1065.680891" />
    <trip id="start1Toend2_26" type="connected" color="1,1,0" from="start1" to="end2" depart="1069.478479" />
    <trip id="start2Toend2_31" type="connected" color="1,1,0" from="start2" to="end2" depart="1077.879617" />
    <trip id="start2Toend2_32" type="connected" color="1,1,0" from="start2" to="end2" depart="1079.776165" />
    <trip id="start1Toend2_27" type="connected" color="1,1,0" from="start1" to="end2" depart="1112.111510" />
    <trip id="start2Toend2_33" type="connected" color="1,1,0" from="start2" to="end2" depart="1112.574822" />
    <trip id="start1Toend1_28" type="connected" color="1,1,0" from="start1" to="end1" depart="1112.937082" />
    <trip id="start1Toend2_28" type="connected" color="1,1,0" from="start1" to="end2" depart="1119.309284" />
    <trip id="start2Toend1_17" type="connected" color="1,1,0" from="start2" to="end1" depart="1123.662700" />
    <trip id="start1Toend1_29" type="connected" color="1,1,0" from="start1" to="end1" depart="1124.685406" />
    <trip id="start2Toend1_18" type="connected" color="1,1,0" from="start2" to="end1" depart="1126.016916" />
    <trip id="start1Toend2_29" type="connected" color="1,1,0" from="start1" to="end2" depart="1136.292790" />
    <trip id="start1Toend2_30" type="connected" color="1,1,0" from="start1" to="end2" depart="1149.029057" />
    <trip id="start1Toend1_30" type="connected" color="1,1,0" from="start1" to="end1" depart="1166.981390" />
    <trip id="start1Toend1_31" type="connected" color="1,1,0" from="start1" to="end1" depart="1174.183742" />
    <trip id="start1Toend2_31" type="connected" color="1,1,0" from="start1" to="end2" depart="1179.827498" />
    <trip id="start1Toend2_32" type="connected" color="1,1,0" from="start1" to="end2" depart="1204.849043" />
    <trip id="start1Toend1_32" type="connected" color="1,1,0" from="start1" to="end1" depart="1212.113149" />
    <trip id="start1Toend2_33" type="connected" color="1,1,0" from="start1" to="end2" depart="1216.502963" />
    <trip id="start1Toend1_33" type="connected" color="1,1,0" from="start1" to="end1" depart="1258.834999" />
    <trip id="start1Toend2_34" type="connected" color="1,1,0" from="start1" to="end2" depart="1262.199594" />
    <trip id="start2Toend1_19" type="connected" color="1,1,0" from="start2" to="end1" depart="1264.547444" />
    <trip id="start2Toend1_20" type="connected" color="1,1,0" from="start2" to="end1" depart="1267.825638" />
    <trip id="start2Toend1_21" type="connected" color="1,1,0" from="start2" to="end1" depart="1286.116346" />
    <trip id="start1Toend1_34" type="connected" color="1,1,0" from="start1" to="end1" depart="1288.824607" />
    <trip id="start2Toend1_22" type="connected" color="1,1,0" from="start2" to="end1" depart="1294.143202" />
    <trip id="start1Toend1_35" type="connected" color="1,1,0" from="start1" to="end1" depart="1312.406989" />
    <trip id="start2Toend2_34" type="connected" color="1,1,0" from="start2" to="end2" depart="1324.266445" />
    <trip id="start2Toend1_23" type="connected" color="1,1,0" from="start2" to="end1" depart="1325.742578" />
    <trip id="start2Toend1_24" type="connected" color="1,1,0" from="start2" to="end1" depart="1329.256302" />
    <trip id="start1Toend2_35" type="connected" color="1,1,0" from="start1" to="end2" depart="1351.388543" />
    <trip id="start1Toend2_36" type="connected" color="1,1,0" from="start1" to="end2" depart="1365.972324" />
    <trip id="start1Toend1_36" type="connected" color="1,1,0" from="start1" to="end1" depart="1383.563937" />
    <trip id="start2Toend2_35" type="connected" color="1,1,0" from="start2" to="end2" depart="1390.318460" />
    <trip id="start1Toend1_37" type="connected" color="1,1,0" from="start1" to="end1" depart="1390.830417" />
    <trip id="start1Toend2_37" type="connected" color="1,1,0" from="start1" to="end2" depart="1396.313471" />
    <trip id="start2Toend2_36" type="connected" color="1,1,0" from="start2" to="end2" depart="1404.523214" />
    <trip id="start1Toend1_38" type="connected" color="1,1,0" from="start1" to="end1" depart="1410.675006" />
    <trip id="start1Toend1_39" type="connected" color="1,1,0" from="start1" to="end1" depart="1413.387383" />
    <trip id="start1Toend1_40" type="connected" color="1,1,0" from="start1" to="end1" depart="1452.865766" />
    <trip id="start1Toend1_41" type="connected" color="1,1,0" from="start1" to="end1" depart="1458.099408" />
    <trip id="start2Toend1_25" type="connected" color="1,1,0" from="start2" to="end1" depart="1482.915295" />
    <trip id="start2Toend1_26" type="connected" color="1,1,0" from="start2" to="end1" depart="1495.298973" />
    <trip id="start2Toend1_27" type="connected" color="1,1,0" from="start2" to="end1" depart="1502.361961" />
    <trip id="start1Toend2_38" type="connected" color="1,1,0" from="start1" to="end2" depart="1503.115851" />
    <trip id="start2Toend1_28" type="connected" color="1,1,0" from="start2" to="end1" depart="1507.909954" />
    <trip id="start2Toend1_29" type="connected" color="1,1,0" from="start2" to="end1" depart="1513.448473" />
    <trip id="start2Toend1_30" type="connected" color="1,1,0" from="start2" to="end1" depart="1519.848810" />
    <trip id="start1Toend1_42" type="connected" color="1,1,0" from="start1" to="end1" depart="1536.874265" />
    <trip id="start2Toend2_37" type="connected" color="1,1,0" from="start2" to="end2" depart="1551.449940" />
    <trip id="start1Toend1_43" type="connected" color="1,1,0" from="start1" to="end1" depart="1563.772899" />
    <trip id="start1Toend2_39" type="connected" color="1,1,0" from="start1" to="end2" depart="1566.917638" />
    <trip id="start2Toend1_31" type="connected" color="1,1,0" from="start2" to="end1" depart="1567.214091" />
    <trip id="start1Toend1_44" type="connected" color="1,1,0" from="start1" to="end1" depart="1583.707811" />
    <trip id="start1Toend1_45" type="connected" color="1,1,0" from="start1" to="end1" depart="1587.324233" />
    <trip id="start1Toend2_40" type="connected" color="1,1,0" from="start1" to="end2" depart="1591.425753" />
    <trip id="start2Toend2_38" type="connected" color="1,1,0" from="start2" to="end2" depart="1605.539012" />
    <trip id="start2Toend1_32" type="connected" color="1,1,0" from="start2" to="end1" depart="1627.549588" />
    <trip id="start1Toend2_41" type="connected" color="1,1,0" from="start1" to="end2" depart="1627.781271" />
    <trip id="start2Toend2_39" type="connected" color="1,1,0" from="start2" to="end2" depart="1639.525888" />
    <trip id="start1Toend1_46" type="connected" color="1,1,0" from="start1" to="end1" depart="1653.477838" />
    <trip id="start2Toend1_33" type="connected" color="1,1,0" from="start2" to="end1" depart="1656.411868" />
    <trip id="start2Toend1_34" type="connected" color="1,1,0" from="start2" to="end1" depart="1676.440670" />
    <trip id="start1Toend1_47" type="connected" color="1,1,0" from="start1" to="end1" depart="1678.661347" />
    <trip id="start2Toend1_35" type="connected" color="1,1,0" from="start2" to="end1" depart="1680.433015" />
    <trip id="start1Toend2_42" type="connected" color="1,1,0" from="start1" to="end2" depart="1681.086866" />
    <trip id="start1Toend1_48" type="connected" color="1,1,0" from="start1" to="end1" depart="1681.596749" />
    <trip id="start2Toend1_36" type="connected" color="1,1,0" from="start2" to="end1" depart="1684.242449" />
    <trip id="start1Toend1_49" type="connected" color="1,1,0" from="start1" to="end1" depart="1684.536225" />
    <trip id="start2Toend2_40" type="connected" color="1,1,0" from="start2" to="end2" depart="1697.439973" />
    <trip id="start1Toend1_50" type="connected" color="1,1,0" from="start1" to="end1" depart="1700.412814" />
    <trip id="start2Toend1_37" type="connected" color="1,1,0" from="start2" to="end1" depart="1703.557309" />
    <trip id="start2Toend1_38" type="connected" color="1,1,0" from="start2" to="end1" depart="1705.038445" />
    <trip id="start2Toend1_39" type="connected" color="1,1,0" from="start2" to="end1" depart="1746.670593" />
    <trip id="start2Toend1_40" type="connected" color="1,1,0" from="start2" to="end1" depart="1751.705567" />
    <trip id="start1Toend1_51" type="connected" color="1,1,0" from="start1" to="end1" depart="1763.518408" />
    <trip id="start1Toend1_52" type="connected" color="1,1,0" from="start1" to="end1" depart="1765.622125" />
    <trip id="start2Toend1_41" type="connected" color="1,1,0" from="start2" to="end1" depart="1777.876409" />
    <trip id="start2Toend1_42" type="connected" color="1,1,0" from="start2" to="end1" depart="1796.980886" />
    <trip id="start2Toend1_43" type="connected" color="1,1,0" from="start2" to="end1" depart="1848.700242" />
    <trip id="start2Toend2_41" type="connected" color="1,1,0" from="start2" to="end2" depart="1860.567680" />
    <trip id="start2Toend2_42" type="connected" color="1,1,0" from="start2" to="end2" depart="1861.040294" />
    <trip id="start2Toend2_43" type="connected" color="1,1,0" from="start2" to="end2" depart="1870.169454" />
    <trip id="start1Toend1_53" type="connected" color="1,1,0" from="start1" to="end1" depart="1878.167680" />
    <trip id="start2Toend1_44" type="connected" color="1,1,0" from="start2" to="end1" depart="1878.261098" />
    <trip id="start2Toend2_44" type="connected" color="1,1,0" from="start2" to="end2" depart="1884.725950" />
    <trip id="start2Toend1_45" type="connected" color="1,1,0" from="start2" to="end1" depart="1892.315773" />
    <trip id="start2Toend2_45" type="connected" color="1,1,0" from="start2" to="end2" depart="1897.504216" />
    <trip id="start2Toend1_46" type="connected" color="1,1,0" from="start2" to="end1" depart="1914.876551" />
    <trip id="start2Toend1_47" type="connected" color="1,1,0" from="start2" to="end1" depart="1919.286360" />
    <trip id="start1Toend2_43" type="connected" color="1,1,0" from="start1" to="end2" depart="1938.178757" />
    <trip id="start2Toend1_48" type="connected" color="1,1,0" from="start2" to="end1" depart="1964.643235" />
    <trip id="start2Toend1_49" type="connected" color="1,1,0" from="start2" to="end1" depart="1985.007546" />
    <trip id="start1Toend1_54" type="connected" color="1,1,0" from="start1" to="end1" depart="1991.670405" />
    <trip id="start2Toend2_46" type="connected" color="1,1,0" from="start2" to="end2" depart="1998.405889" />
    <trip id="start2Toend1_50" type="connected" color="1,1,0" from="start2" to="end1" depart="2005.345477" />
    <trip id="start2Toend2_47" type="connected" color="1,1,0" from="start2" to="end2" depart="2020.138697" />
    <trip id="start1Toend1_55" type="connected" color="1,1,0" from="start1" to="end1" depart="2026.754443" />
    <trip id="start1Toend1_56" type="connected" color="1,1,0" from="start1" to="end1" depart="2037.350816" />
    <trip id="start2Toend2_48" type="connected" color="1,1,0" from="start2" to="end2" depart="2037.769237" />
    <trip id="start1Toend1_57" type="connected" color="1,1,0" from="start1" to="end1" depart="2042.449937" />
    <trip id="start2Toend2_49" type="connected" color="1,1,0" from="start2" to="end2" depart="2044.475681" />
    <trip id="start1Toend1_58" type="connected" color="1,1,0" from="start1" to="end1" depart="2050.301260" />
    <trip id="start2Toend1_51" type="connected" color="1,1,0" from="start2" to="end1" depart="2062.541598" />
    <trip id="start1Toend1_59" type="connected" color="1,1,0" from="start1" to="end1" depart="2071.730160" />
    <trip id="start1Toend1_60" type="connected" color="1,1,0" from="start1" to="end1" depart="2095.109839" />
    <trip id="start1Toend2_44" type="connected" color="1,1,0" from="start1" to="end2" depart="2110.477234" />
    <trip id="start2Toend2_50" type="connected" color="1,1,0" from="start2" to="end2" depart="2112.865240" />
    <trip id="start2Toend1_52" type="connected" color="1,1,0" from="start2" to="end1" depart="2115.075457" />
    <trip id="start2Toend1_53" type="connected" color="1,1,0" from="start2" to="end1" depart="2118.414523" />
    <trip id="start2Toend2_51" type="connected" color="1,1,0" from="start2" to="end2" depart="2123.324428" />
    <trip id="start1Toend1_61" type="connected" color="1,1,0" from="start1" to="end1" depart="2141.748378" />
    <trip id="start2Toend2_52" type="connected" color="1,1,0" from="start2" to="end2" depart="2160.058584" />
    <trip id="start1Toend1_62" type="connected" color="1,1,0" from="start1" to="end1" depart="2165.316277" />
    <trip id="start1Toend2_45" type="connected" color="1,1,0" from="start1" to="end2" depart="2172.017613" />
    <trip id="start2Toend2_53" type="connected" color="1,1,0" from="start2" to="end2" depart="2180.619740" />
    <trip id="start2Toend2_54" type="connected" color="1,1,0" from="start2" to="end2" depart="2181.287729" />
    <trip id="start1Toend2_46" type="connected" color="1,1,0" from="start1" to="end2" depart="2181.836754" />
    <trip id="start2Toend2_55" type="connected" color="1,1,0" from="start2" to="end2" depart="2189.516864" />
    <trip id="start2Toend2_56" type="connected" color="1,1,0" from="start2" to="end2" depart="2191.066437" />
    <trip id="start1Toend1_63" type="connected" color="1,1,0" from="start1" to="end1" depart="2194.554860" />
    <trip id="start1Toend2_47" type="connected" color="1,1,0" from="start1" to="end2" depart="2215.188561" />
    <trip id="start2Toend1_54" type="connected" color="1,1,0" from="start2" to="end1" depart="2216.855317" />
    <trip id="start1Toend2_48" type="connected" color="1,1,0" from="start1" to="end2" depart="2281.465564" />
    <trip id="start2Toend2_57" type="connected" color="1,1,0" from="start2" to="end2" depart="2285.256926" />
    <trip id="start2Toend2_58" type="connected" color="1,1,0" from="start2" to="end2" depart="2300.306203" />
    <trip id="start1Toend1_64" type="connected" color="1,1,0" from="start1" to="end1" depart="2305.409531" />
    <trip id="start1Toend1_65" type="connected" color="1,1,0" from="start1" to="end1" depart="2309.200262" />
    <trip id="start2Toend1_55" type="connected" color="1,1,0" from="start2" to="end1" depart="2311.115458" />
    <trip id="start2Toend1_56" type="connected" color="1,1,0" from="start2" to="end1" depart="2312.381050" />
    <trip id="start2Toend2_59" type="connected" color="1,1,0" from="start2" to="end2" depart="2326.327800" />
    <trip id="start1Toend2_49" type="connected" color="1,1,0" from="start1" to="end2" depart="2327.357005" />
    <trip id="start2Toend2_60" type="connected" color="1,1,0" from="start2" to="end2" depart="2343.165282" />
    <trip id="start2Toend2_61" type="connected" color="1,1,0" from="start2" to="end2" depart="2347.222183" />
    <trip id="start1Toend1_66" type="connected" color="1,1,0" from="start1" to="end1" depart="2351.363269" />
    <trip id="start2Toend2_62" type="connected" color="1,1,0" from="start2" to="end2" depart="2372.902648" />
    <trip id="start1Toend2_50" type="connected" color="1,1,0" from="start1" to="end2" depart="2388.729659" />
    <trip id="start2Toend2_63" type="connected" color="1,1,0" from="start2" to="end2" depart="2405.209839" />
    <trip id="start2Toend1_57" type="connected" color="1,1,0" from="start2" to="end1" depart="2416.395970" />
    <trip id="start2Toend2_64" type="connected" color="1,1,0" from="start2" to="end2" depart="2416.725847" />
    <trip id="start2Toend2_65" type="connected" color="1,1,0" from="start2" to="end2" depart="2426.365149" />
    <trip id="start2Toend2_66" type="connected" color="1,1,0" from="start2" to="end2" depart="2441.367117" />
    <trip id="start2Toend1_58" type="connected" color="1,1,0" from="start2" to="end1" depart="2449.172866" />
    <trip id="start1Toend2_51" type="connected" color="1,1,0" from="start1" to="end2" depart="2449.393196" />
    <trip id="start1Toend1_67" type="connected" color="1,1,0" from="start1" to="end1" depart="2454.105036" />
    <trip id="start1Toend1_68" type="connected" color="1,1,0" from="start1" to="end1" depart="2474.470436" />
    <trip id="start2Toend1_59" type="connected" color="1,1,0" from="start2" to="end1" depart="2475.471583" />
    <trip id="start2Toend2_67" type="connected" color="1,1,0" from="start2" to="end2" depart="2486.636480" />
    <trip id="start2Toend1_60" type="connected" color="1,1,0" from="start2" to="end1" depart="2507.276820" />
    <trip id="start1Toend2_52" type="connected" color="1,1,0" from="start1" to="end2" depart="2516.789850" />
    <trip id="start1Toend1_69" type="connected" color="1,1,0" from="start1" to="end1" depart="2519.142255" />
    <trip id="start2Toend2_68" type="connected" color="1,1,0" from="start2" to="end2" depart="2536.227131" />
    <trip id="start1Toend1_70" type="connected" color="1,1,0" from="start1" to="end1" depart="2539.100910" />
    <trip id="start1Toend1_71" type="connected" color="1,1,0" from="start1" to="end1" depart="2540.891750" />
    <trip id="start2Toend1_61" type="connected" color="1,1,0" from="start2" to="end1" depart="2545.453483" />
    <trip id="start2Toend1_62" type="connected" color="1,1,0" from="start2" to="end1" depart="2558.518151" />
    <trip id="start2Toend2_69" type="connected" color="1,1,0" from="start2" to="end2" depart="2561.950465" />
    <trip id="start2Toend2_70" type="connected" color="1,1,0" from="start2" to="end2" depart="2566.225346" />
    <trip id="start1Toend1_72" type="connected" color="1,1,0" from="start1" to="end1" depart="2571.404155" />
    <trip id="start2Toend2_71" type="connected" color="1,1,0" from="start2" to="end2" depart="2598.636646" />