<?xml version="1.0" encoding="UTF-8"?>

<routes>

	<route id="route0" edges="start1 end1" />
    <route id="route1" edges="start1 end2" />
    <route id="route2" edges="start2 end1" />
    <route id="route3" edges="start2 end2" />


    <vType id="conventional" vClass="passenger" sigma="1" maxSpeed="40.0" color="red" accel="10.0"/>
    <vType id="connected" vClass="passenger" tau="1.3" maxSpeed="28.00" lcCooperative="0.0" color="1,1,0" lcStrategic="1.0" accel="3.0" decel="1.5" emergencyDecel="4.5" lcSpeedGain="0.3" sigma="0.0" lcKeepRight="0.3"/>
    <vType id="connected_pCatchupFollower" vClass="passenger" emergencyDecel="4.5" length="5" tau="0.1" maxSpeed="28.00" color="1,1,0" accel="10.3" decel="1.7" sigma="0.0" minGap="2.0"/>
    <vType id="connected_pCatchup" vClass="passenger" tau="0.1" emergencyDecel="4.5" maxSpeed="28.00" color="0,0.8,0.3" accel="10.3" decel="1.7" sigma="0.0" minGap="2.0"/>
    <vType id="connected_pFollower" vClass="passenger" tau="0.1" maxSpeed="28.00" color="1,1,0" accel="10.3" decel="1.7" sigma="0.0"  minGap="2.0" emergencyDecel="4.5"/>
    <vType id="connected_pLeader" vClass="passenger" length="5" tau="1.3" maxSpeed="28.00" lcCooperative="0.0" color="1,1,0" lcStrategic="1.0" accel="2.0" decel="1.5" emergencyDecel="4.5" lcSpeedGain="0.3" sigma="0.0" lcKeepRight="0.3"/>
    


	
    <trip id="start1Toend1_0" type="connected" color="1,1,0" from="start1" to="end1" depart="0.000000" />
    <trip id="start2Toend1_0" type="connected" color="1,1,0" from="start2" to="end1" depart="0.000000" />
    <trip id="start1Toend2_0" type="connected" color="1,1,0" from="start1" to="end2" depart="0.000000" />
    <trip id="start2Toend2_0" type="connected" color="1,1,0" from="start2" to="end2" depart="0.000000" />
    <trip id="start2Toend1_1" type="connected" color="1,1,0" from="start2" to="end1" depart="9.637990" />
    <trip id="start1Toend2_1" type="connected" color="1,1,0" from="start1" to="end2" depart="21.084138" />
    <trip id="start1Toend1_1" type="connected" color="1,1,0" from="start1" to="end1" depart="41.637254" />
    <trip id="start2Toend1_2" type="connected" color="1,1,0" from="start2" to="end1" depart="62.955727" />
    <trip id="start2Toend1_3" type="connected" color="1,1,0" from="start2" to="end1" depart="105.315276" />
    <trip id="start2Toend1_4" type="connected" color="1,1,0" from="start2" to="end1" depart="138.465350" />
    <trip id="start1Toend1_2" type="connected" color="1,1,0" from="start1" to="end1" depart="141.400794" />
    <trip id="start2Toend2_1" type="connected" color="1,1,0" from="start2" to="end2" depart="141.582604" />
    <trip id="start1Toend2_2" type="connected" color="1,1,0" from="start1" to="end2" depart="196.683314" />
    <trip id="start1Toend2_3" type="connected" color="1,1,0" from="start1" to="end2" depart="202.145443" />
    <trip id="start1Toend1_3" type="connected" color="1,1,0" from="start1" to="end1" depart="249.969772" />
    <trip id="start1Toend2_4" type="connected" color="1,1,0" from="start1" to="end2" depart="292.236936" />
    <trip id="start2Toend1_5" type="connected" color="1,1,0" from="start2" to="end1" depart="298.591288" />
    <trip id="start1Toend2_5" type="connected" color="1,1,0" from="start1" to="end2" depart="313.637404" />
    <trip id="start1Toend1_4" type="connected" color="1,1,0" from="start1" to="end1" depart="350.235235" />
    <trip id="start2Toend1_6" type="connected" color="1,1,0" from="start2" to="end1" depart="503.181738" />
    <trip id="start2Toend2_2" type="connected" color="1,1,0" from="start2" to="end2" depart="533.270920" />
    <trip id="start2Toend1_7" type="connected" color="1,1,0" from="start2" to="end1" depart="550.524936" />
    <trip id="start2Toend2_3" type="connected" color="1,1,0" from="start2" to="end2" depart="551.028649" />
    <trip id="start2Toend1_8" type="connected" color="1,1,0" from="start2" to="end1" depart="556.269667" />
    <trip id="start1Toend2_6" type="connected" color="1,1,0" from="start1" to="end2" depart="564.345987" />
    <trip id="start1Toend1_5" type="connected" color="1,1,0" from="start1" to="end1" depart="571.639742" />
    <trip id="start1Toend2_7" type="connected" color="1,1,0" from="start1" to="end2" depart="624.572306" />
    <trip id="start2Toend1_9" type="connected" color="1,1,0" from="start2" to="end1" depart="639.258652" />
    <trip id="start1Toend2_8" type="connected" color="1,1,0" from="start1" to="end2" depart="641.415083" />
    <trip id="start1Toend1_6" type="connected" color="1,1,0" from="start1" to="end1" depart="685.048819" />
    <trip id="start1Toend1_7" type="connected" color="1,1,0" from="start1" to="end1" depart="687.542755" />
    <trip id="start2Toend1_10" type="connected" color="1,1,0" from="start2" to="end1" depart="694.046930" />
    <trip id="start2Toend2_4" type="connected" color="1,1,0" from="start2" to="end2" depart="698.055469" />
    <trip id="start2Toend1_11" type="connected" color="1,1,0" from="start2" to="end1" depart="711.771560" />
    <trip id="start2Toend1_12" type="connected" color="1,1,0" from="start2" to="end1" depart="743.595021" />
    <trip id="start1Toend1_8" type="connected" color="1,1,0" from="start1" to="end1" depart="789.183002" />
    <trip id="start1Toend2_9" type="connected" color="1,1,0" from="start1" to="end2" depart="825.857746" />
    <trip id="start1Toend1_9" type="connected" color="1,1,0" from="start1" to="end1" depart="846.422023" />
    <trip id="start1Toend1_10" type="connected" color="1,1,0" from="start1" to="end1" depart="847.005895" />
    <trip id="start2Toend2_5" type="connected" color="1,1,0" from="start2" to="end2" depart="882.113846" />
    <trip id="start1Toend2_10" type="connected" color="1,1,0" from="start1" to="end2" depart="885.135558" />
    <trip id="start2Toend1_13" type="connected" color="1,1,0" from="start2" to="end1" depart="893.257694" />
    <trip id="start1Toend2_11" type="connected" color="1,1,0" from="start1" to="end2" depart="958.707186" />
    <trip id="start1Toend2_12" type="connected" color="1,1,0" from="start1" to="end2" depart="962.140992" />
    <trip id="start2Toend1_14" type="connected" color="1,1,0" from="start2" to="end1" depart="962.919713" />
    <trip id="start2Toend1_15" type="connected" color="1,1,0" from="start2" to="end1" depart="971.838230" />
    <trip id="start1Toend2_13" type="connected" color="1,1,0" from="start1" to="end2" depart="978.878662" />
    <trip id="start1Toend1_11" type="connected" color="1,1,0" from="start1" to="end1" depart="978.966665" />
    <trip id="start2Toend2_6" type="connected" color="1,1,0" from="start2" to="end2" depart="1008.366444" />
    <trip id="start2Toend2_7" type="connected" color="1,1,0" from="start2" to="end2" depart="1016.110657" />
    <trip id="start2Toend1_16" type="connected" color="1,1,0" from="start2" to="end1" depart="1046.920518" />
    <trip id="start1Toend1_12" type="connected" color="1,1,0" from="start1" to="end1" depart="1077.952965" />
    <trip id="start2Toend1_17" type="connected" color="1,1,0" from="start2" to="end1" depart="1081.638415" />
    <trip id="start1Toend2_14" type="connected" color="1,1,0" from="start1" to="end2" depart="1084.614143" />
    <trip id="start1Toend2_15" type="connected" color="1,1,0" from="start1" to="end2" depart="1121.044142" />
    <trip id="start2Toend2_8" type="connected" color="1,1,0" from="start2" to="end2" depart="1149.398804" />
    <trip id="start2Toend2_9" type="connected" color="1,1,0" from="start2" to="end2" depart="1162.407163" />
    <trip id="start1Toend1_13" type="connected" color="1,1,0" from="start1" to="end1" depart="1162.828669" />
    <trip id="start1Toend1_14" type="connected" color="1,1,0" from="start1" to="end1" depart="1197.585948" />
    <trip id="start2Toend2_10" type="connected" color="1,1,0" from="start2" to="end2" depart="1212.744010" />
    <trip id="start2Toend2_11" type="connected" color="1,1,0" from="start2" to="end2" depart="1242.751555" />
    <trip id="start2Toend1_18" type="connected" color="1,1,0" from="start2" to="end1" depart="1301.774366" />
    <trip id="start1Toend1_15" type="connected" color="1,1,0" from="start1" to="end1" depart="1315.650595" />
    <trip id="start2Toend1_19" type="connected" color="1,1,0" from="start2" to="end1" depart="1365.280669" />
    <trip id="start2Toend2_12" type="connected" color="1,1,0" from="start2" to="end2" depart="1376.141400" />
    <trip id="start2Toend2_13" type="connected" color="1,1,0" from="start2" to="end2" depart="1400.421832" />
    <trip id="start1Toend1_16" type="connected" color="1,1,0" from="start1" to="end1" depart="1413.391992" />
    <trip id="start2Toend2_14" type="connected" color="1,1,0" from="start2" to="end2" depart="1421.167202" />
    <trip id="start1Toend2_16" type="connected" color="1,1,0" from="start1" to="end2" depart="1422.780317" />
    <trip id="start1Toend2_17" type="connected" color="1,1,0" from="start1" to="end2" depart="1446.892233" />
    <trip id="start2Toend1_20" type="connected" color="1,1,0" from="start2" to="end1" depart="1448.295089" />
    <trip id="start2Toend2_15" type="connected" color="1,1,0" from="start2" to="end2" depart="1470.929179" />
    <trip id="start2Toend1_21" type="connected" color="1,1,0" from="start2" to="end1" depart="1484.253619" />
    <trip id="start2Toend1_22" type="connected" color="1,1,0" from="start2" to="end1" depart="1516.935924" />
    <trip id="start1Toend1_17" type="connected" color="1,1,0" from="start1" to="end1" depart="1551.203797" />
    <trip id="start2Toend2_16" type="connected" color="1,1,0" from="start2" to="end2" depart="1578.077048" />
    <trip id="start2Toend1_23" type="connected" color="1,1,0" from="start2" to="end1" depart="1590.982145" />
    <trip id="start2Toend1_24" type="connected" color="1,1,0" from="start2" to="end1" depart="1606.826966" />
    <trip id="start2Toend2_17" type="connected" color="1,1,0" from="start2" to="end2" depart="1614.272402" />
    <trip id="start2Toend1_25" type="connected" color="1,1,0" from="start2" to="end1" depart="1620.209070" />
    <trip id="start1Toend1_18" type="connected" color="1,1,0" from="start1" to="end1" depart="1622.343020" />
    <trip id="start1Toend1_19" type="connected" color="1,1,0" from="start1" to="end1" depart="1633.165363" />
    <trip id="start2Toend1_26" type="connected" color="1,1,0" from="start2" to="end1" depart="1633.847383" />
    <trip id="start2Toend2_18" type="connected" color="1,1,0" from="start2" to="end2" depart="1638.526352" />
    <trip id="start1Toend1_20" type="connected" color="1,1,0" from="start1" to="end1" depart="1662.791052" />
    <trip id="start2Toend1_27" type="connected" color="1,1,0" from="start2" to="end1" depart="1668.688155" />
    <trip id="start1Toend1_21" type="connected" color="1,1,0" from="start1" to="end1" depart="1674.098499" />
    <trip id="start2Toend1_28" type="connected" color="1,1,0" from="start2" to="end1" depart="1677.658353" />
    <trip id="start1Toend1_22" type="connected" color="1,1,0" from="start1" to="end1" depart="1726.095907" />
    <trip id="start2Toend2_19" type="connected" color="1,1,0" from="start2" to="end2" depart="1741.170327" />
    <trip id="start1Toend2_18" type="connected" color="1,1,0" from="start1" to="end2" depart="1762.147717" />
    <trip id="start1Toend2_19" type="connected" color="1,1,0" from="start1" to="end2" depart="1778.197452" />
    <trip id="start2Toend2_20" type="connected" color="1,1,0" from="start2" to="end2" depart="1804.374256" />
    <trip id="start2Toend2_21" type="connected" color="1,1,0" from="start2" to="end2" depart="1818.820691" />
    <trip id="start2Toend1_29" type="connected" color="1,1,0" from="start2" to="end1" depart="1829.919889" />
    <trip id="start1Toend1_23" type="connected" color="1,1,0" from="start1" to="end1" depart="1838.983455" />
    <trip id="start1Toend1_24" type="connected" color="1,1,0" from="start1" to="end1" depart="1840.809159" />
    <trip id="start1Toend1_25" type="connected" color="1,1,0" from="start1" to="end1" depart="1847.805847" />
    <trip id="start2Toend1_30" type="connected" color="1,1,0" from="start2" to="end1" depart="1861.058488" />
    <trip id="start2Toend1_31" type="connected" color="1,1,0" from="start2" to="end1" depart="1894.452917" />
    <trip id="start2Toend2_22" type="connected" color="1,1,0" from="start2" to="end2" depart="1903.089446" />
    <trip id="start2Toend1_32" type="connected" color="1,1,0" from="start2" to="end1" depart="1927.363735" />
    <trip id="start1Toend1_26" type="connected" color="1,1,0" from="start1" to="end1" depart="1958.928271" />
    <trip id="start1Toend2_20" type="connected" color="1,1,0" from="start1" to="end2" depart="2021.420073" />
    <trip id="start1Toend1_27" type="connected" color="1,1,0" from="start1" to="end1" depart="2023.317831" />
    <trip id="start1Toend1_28" type="connected" color="1,1,0" from="start1" to="end1" depart="2091.370639" />
    <trip id="start2Toend2_23" type="connected" color="1,1,0" from="start2" to="end2" depart="2120.056585" />
    <trip id="start1Toend2_21" type="connected" color="1,1,0" from="start1" to="end2" depart="2139.879039" />
    <trip id="start2Toend1_33" type="connected" color="1,1,0" from="start2" to="end1" depart="2164.825230" />
    <trip id="start2Toend2_24" type="connected" color="1,1,0" from="start2" to="end2" depart="2193.085212" />
    <trip id="start1Toend1_29" type="connected" color="1,1,0" from="start1" to="end1" depart="2247.601112" />
    <trip id="start1Toend1_30" type="connected" color="1,1,0" from="start1" to="end1" depart="2251.054062" />
    <trip id="start2Toend1_34" type="connected" color="1,1,0" from="start2" to="end1" depart="2252.157065" />
    <trip id="start1Toend1_31" type="connected" color="1,1,0" from="start1" to="end1" depart="2287.346428" />
    <trip id="start1Toend1_32" type="connected" color="1,1,0" from="start1" to="end1" depart="2287.737397" />
    <trip id="start1Toend2_22" type="connected" color="1,1,0" from="start1" to="end2" depart="2406.035842" />
    <trip id="start1Toend2_23" type="connected" color="1,1,0" from="start1" to="end2" depart="2420.925009" />
    <trip id="start2Toend1_35" type="connected" color="1,1,0" from="start2" to="end1" depart="2463.516897" />
    <trip id="start2Toend1_36" type="connected" color="1,1,0" from="start2" to="end1" depart="2529.037868" />
    <trip id="start2Toend1_37" type="connected" color="1,1,0" from="start2" to="end1" depart="2572.842791" />
    <trip id="start1Toend2_24" type="connected" color="1,1,0" from="start1" to="end2" depart="2587.415038" />
    <trip id="start1Toend2_25" type="connected" color="1,1,0" from="start1" to="end2" depart="2623.650826" />
    <trip id="start2Toend2_25" type="connected" color="1,1,0" from="start2" to="end2" depart="2626.408752" />
    <trip id="start1Toend2_26" type="connected" color="1,1,0" from="start1" to="end2" depart="2631.126943" />
    <trip id="start2Toend1_38" type="connected" color="1,1,0" from="start2" to="end1" depart="2634.193889" />
    <trip id="start1Toend2_27" type="connected" color="1,1,0" from="start1" to="end2" depart="2652.861119" />
    <trip id="start2Toend1_39" type="connected" color="1,1,0" from="start2" to="end1" depart="2677.483281" />
    <trip id="start1Toend2_28" type="connected" color="1,1,0" from="start1" to="end2" depart="2723.900996" />
    <trip id="start2Toend1_40" type="connected" color="1,1,0" from="start2" to="end1" depart="2749.229317" />
    <trip id="start1Toend2_29" type="connected" color="1,1,0" from="start1" to="end2" depart="2772.554939" />
    <trip id="start1Toend2_30" type="connected" color="1,1,0" from="start1" to="end2" depart="2816.040060" />
    <trip id="start1Toend1_33" type="connected" color="1,1,0" from="start1" to="end1" depart="2819.924367" />
    <trip id="start2Toend1_41" type="connected" color="1,1,0" from="start2" to="end1" depart="2862.853588" />
    <trip id="start2Toend1_42" type="connected" color="1,1,0" from="start2" to="end1" depart="2899.067771" />
    <trip id="start2Toend1_43" type="connected" color="1,1,0" from="start2" to="end1" depart="2901.766441" />
    <trip id="start1Toend1_34" type="connected" color="1,1,0" from="start1" to="end1" depart="2938.919530" />
    <trip id="start2Toend1_44" type="connected" color="1,1,0" from="start2" to="end1" depart="2942.433217" />
    <trip id="start2Toend1_45" type="connected" color="1,1,0" from="start2" to="end1" depart="2946.961389" />
    <trip id="start2Toend1_46" type="connected" color="1,1,0" from="start2" to="end1" depart="3003.026173" />
    <trip id="start1Toend1_35" type="connected" color="1,1,0" from="start1" to="end1" depart="3007.658286" />
    <trip id="start1Toend2_31" type="connected" color="1,1,0" from="start1" to="end2" depart="3040.046433" />
    <trip id="start1Toend2_32" type="connected" color="1,1,0" from="start1" to="end2" depart="3044.724556" />
    <trip id="start2Toend1_47" type="connected" color="1,1,0" from="start2" to="end1" depart="3058.313228" />
    <trip id="start1Toend1_36" type="connected" color="1,1,0" from="start1" to="end1" depart="3068.019172" />
    <trip id="start1Toend2_33" type="connected" color="1,1,0" from="start1" to="end2" depart="3079.123651" />
    <trip id="start2Toend1_48" type="connected" color="1,1,0" from="start2" to="end1" depart="3091.898370" />
    <trip id="start1Toend2_34" type="connected" color="1,1,0" from="start1" to="end2" depart="3103.867465" />
    <trip id="start2Toend2_26" type="connected" color="1,1,0" from="start2" to="end2" depart="3138.398792" />
    <trip id="start1Toend1_37" type="connected" color="1,1,0" from="start1" to="end1" depart="3139.003438" />
    <trip id="start1Toend2_35" type="connected" color="1,1,0" from="start1" to="end2" depart="3186.264692" />
    <trip id="start1Toend1_38" type="connected" color="1,1,0" from="start1" to="end1" depart="3190.801286" />
    <trip id="start2Toend2_27" type="connected" color="1,1,0" from="start2" to="end2" depart="3219.309653" />
    <trip id="start1Toend1_39" type="connected" color="1,1,0" from="start1" to="end1" depart="3248.452614" />
    <trip id="start2Toend2_28" type="connected" color="1,1,0" from="start2" to="end2" depart="3293.231633" />
    <trip id="start2Toend1_49" type="connected" color="1,1,0" from="start2" to="end1" depart="3294.639423" />
    <trip id="start2Toend1_50" type="connected" color="1,1,0" from="start2" to="end1" depart="3297.140127" />
    <trip id="start2Toend2_29" type="connected" color="1,1,0" from="start2" to="end2" depart="3336.620041" />
    <trip id="start2Toend2_30" type="connected" color="1,1,0" from="start2" to="end2" depart="3346.867623" />
    <trip id="start2Toend2_31" type="connected" color="1,1,0" from="start2" to="end2" depart="3355.210389" />
    <trip id="start1Toend1_40" type="connected" color="1,1,0" from="start1" to="end1" depart="3378.484441" />
    <trip id="start1Toend1_41" type="connected" color="1,1,0" from="start1" to="end1" depart="3391.796229" />
    <trip id="start1Toend2_36" type="connected" color="1,1,0" from="start1" to="end2" depart="3430.644851" />
    <trip id="start1Toend1_42" type="connected" color="1,1,0" from="start1" to="end1" depart="3455.994614" />
    <trip id="start1Toend1_43" type="connected" color="1,1,0" from="start1" to="end1" depart="3457.810769" />
    <trip id="start2Toend2_32" type="connected" color="1,1,0" from="start2" to="end2" depart="3459.342570" />
    <trip id="start2Toend2_33" type="connected" color="1,1,0" from="start2" to="end2" depart="3460.473356" />
    <trip id="start2Toend1_51" type="connected" color="1,1,0" from="start2" to="end1" depart="3503.823725" />
    <trip id="start1Toend1_44" type="connected" color="1,1,0" from="start1" to="end1" depart="3560.198767" />
    <trip id="start1Toend2_37" type="connected" color="1,1,0" from="start1" to="end2" depart="3567.710904" />
    <trip id="start2Toend2_34" type="connected" color="1,1,0" from="start2" to="end2" depart="3577.737517" />
    <trip id="start2Toend1_52" type="connected" color="1,1,0" from="start2" to="end1" depart="3631.009929" />
    <trip id="start1Toend2_38" type="connected" color="1,1,0" from="start1" to="end2" depart="3640.643017" />
    <trip id="start2Toend2_35" type="connected" color="1,1,0" from="start2" to="end2" depart="3653.280693" />
    <trip id="start1Toend1_45" type="connected" color="1,1,0" from="start1" to="end1" depart="3653.432646" />
    <trip id="start2Toend1_53" type="connected" color="1,1,0" from="start2" to="end1" depart="3688.847999" />
    <trip id="start1Toend1_46" type="connected" color="1,1,0" from="start1" to="end1" depart="3696.997126" />
    <trip id="start1Toend2_39" type="connected" color="1,1,0" from="start1" to="end2" depart="3704.845250" />
    <trip id="start2Toend1_54" type="connected" color="1,1,0" from="start2" to="end1" depart="3744.378928" />
    <trip id="start2Toend2_36" type="connected" color="1,1,0" from="start2" to="end2" depart="3753.530387" />
    <trip id="start2Toend2_37" type="connected" color="1,1,0" from="start2" to="end2" depart="3772.545561" />
    <trip id="start1Toend1_47" type="connected" color="1,1,0" from="start1" to="end1" depart="3804.306550" />
    <trip id="start1Toend1_48" type="connected" color="1,1,0" from="start1" to="end1" depart="3804.355460" />
    <trip id="start1Toend2_40" type="connected" color="1,1,0" from="start1" to="end2" depart="3818.782793" />
    <trip id="start1Toend2_41" type="connected" color="1,1,0" from="start1" to="end2" depart="3837.767868" />
    <trip id="start1Toend1_49" type="connected" color="1,1,0" from="start1" to="end1" depart="3934.754975" />
    <trip id="start1Toend1_50" type="connected" color="1,1,0" from="start1" to="end1" depart="3947.619439" />
    <trip id="start2Toend2_38" type="connected" color="1,1,0" from="start2" to="end2" depart="3948.647371" />
    <trip id="start1Toend1_51" type="connected" color="1,1,0" from="start1" to="end1" depart="3959.351227" />
    <trip id="start1Toend2_42" type="connected" color="1,1,0" from="start1" to="end2" depart="4027.215169" />
    <trip id="start2Toend1_55" type="connected" color="1,1,0" from="start2" to="end1" depart="4056.260994" />
    <trip id="start1Toend2_43" type="connected" color="1,1,0" from="start1" to="end2" depart="4081.613419" />
    <trip id="start1Toend1_52" type="connected" color="1,1,0" from="start1" to="end1" depart="4085.870353" />
    <trip id="start2Toend2_39" type="connected" color="1,1,0" from="start2" to="end2" depart="4259.774776" />
    <trip id="start2Toend1_56" type="connected" color="1,1,0" from="start2" to="end1" depart="4264.236196" />
    <trip id="start2Toend2_40" type="connected" color="1,1,0" from="start2" to="end2" depart="4272.958624" />
    <trip id="start2Toend1_57" type="connected" color="1,1,0" from="start2" to="end1" depart="4320.374203" />
    <trip id="start1Toend1_53" type="connected" color="1,1,0" from="start1" to="end1" depart="4333.667402" />
    <trip id="start1Toend1_54" type="connected" color="1,1,0" from="start1" to="end1" depart="4339.371848" />
    <trip id="start2Toend1_58" type="connected" color="1,1,0" from="start2" to="end1" depart="4380.109721" />
    <trip id="start2Toend2_41" type="connected" color="1,1,0" from="start2" to="end2" depart="4398.994544" />
    <trip id="start2Toend1_59" type="connected" color="1,1,0" from="start2" to="end1" depart="4429.258713" />
    <trip id="start1Toend2_44" type="connected" color="1,1,0" from="start1" to="end2" depart="4452.378220" />
    <trip id="start1Toend1_55" type="connected" color="1,1,0" from="start1" to="end1" depart="4473.053374" />
    <trip id="start1Toend2_45" type="connected" color="1,1,0" from="start1" to="end2" depart="4509.548496" />
    <trip id="start1Toend2_46" type="connected" color="1,1,0" from="start1" to="end2" depart="4546.168728" />
    <trip id="start1Toend2_47" type="connected" color="1,1,0" from="start1" to="end2" depart="4571.752924" />
    <trip id="start1Toend1_56" type="connected" color="1,1,0" from="start1" to="end1" depart="4586.679716" />
    <trip id="start1Toend1_57" type="connected" color="1,1,0" from="start1" to="end1" depart="4588.290737" />
    <trip id="start2Toend2_42" type="connected" color="1,1,0" from="start2" to="end2" depart="4592.602406" />
    <trip id="start2Toend2_43" type="connected" color="1,1,0" from="start2" to="end2" depart="4606.090982" />
    <trip id="start2Toend1_60" type="connected" color="1,1,0" from="start2" to="end1" depart="4650.029937" />
    <trip id="start1Toend2_48" type="connected" color="1,1,0" from="start1" to="end2" depart="4674.806936" />
    <trip id="start1Toend2_49" type="connected" color="1,1,0" from="start1" to="end2" depart="4680.852007" />
    <trip id="start1Toend1_58" type="connected" color="1,1,0" from="start1" to="end1" depart="4698.014183" />
    <trip id="start2Toend1_61" type="connected" color="1,1,0" from="start2" to="end1" depart="4718.932977" />
    <trip id="start2Toend1_62" type="connected" color="1,1,0" from="start2" to="end1" depart="4734.259223" />
    <trip id="start1Toend2_50" type="connected" color="1,1,0" from="start1" to="end2" depart="4737.383531" />
    <trip id="start2Toend1_63" type="connected" color="1,1,0" from="start2" to="end1" depart="4747.834345" />
    <trip id="start2Toend2_44" type="connected" color="1,1,0" from="start2" to="end2" depart="4823.416226" />
    <trip id="start2Toend1_64" type="connected" color="1,1,0" from="start2" to="end1" depart="4841.997523" />
    <trip id="start2Toend2_45" type="connected" color="1,1,0" from="start2" to="end2" depart="4862.472248" />
    <trip id="start1Toend2_51" type="connected" color="1,1,0" from="start1" to="end2" depart="4868.450821" />
    <trip id="start2Toend1_65" type="connected" color="1,1,0" from="start2" to="end1" depart="4875.500594" />
    <trip id="start2Toend1_66" type="connected" color="1,1,0" from="start2" to="end1" depart="4903.160252" />
    <trip id="start2Toend1_67" type="connected" color="1,1,0" from="start2" to="end1" depart="4989.429717" />
    <trip id="start1Toend2_52" type="connected" color="1,1,0" from="start1" to="end2" depart="4999.589292" />
    <trip id="start1Toend2_53" type="connected" color="1,1,0" from="start1" to="end2" depart="5027.027903" />
    <trip id="start2Toend1_68" type="connected" color="1,1,0" from="start2" to="end1" depart="5066.519911" />
    <trip id="start2Toend2_46" type="connected" color="1,1,0" from="start2" to="end2" depart="5089.921901" />
    <trip id="start1Toend1_59" type="connected" color="1,1,0" from="start1" to="end1" depart="5118.139986" />
    <trip id="start1Toend1_60" type="connected" color="1,1,0" from="start1" to="end1" depart="5124.230256" />
    <trip id="start1Toend2_54" type="connected" color="1,1,0" from="start1" to="end2" depart="5161.009657" />
    <trip id="start2Toend1_69" type="connected" color="1,1,0" from="start2" to="end1" depart="5213.929186" />
    <trip id="start2Toend1_70" type="connected" color="1,1,0" from="start2" to="end1" depart="5290.132855" />
    <trip id="start2Toend1_71" type="connected" color="1,1,0" from="start2" to="end1" depart="5330.937495" />
    <trip id="start2Toend2_47" type="connected" color="1,1,0" from="start2" to="end2" depart="5408.009955" />
    <trip id="start1Toend2_55" type="connected" color="1,1,0" from="start1" to="end2" depart="5431.367629" />
    <trip id="start1Toend1_61" type="connected" color="1,1,0" from="start1" to="end1" depart="5450.174249" />
    <trip id="start1Toend2_56" type="connected" color="1,1,0" from="start1" to="end2" depart="5460.651631" />
    <trip id="start2Toend1_72" type="connected" color="1,1,0" from="start2" to="end1" depart="5460.681944" />
    <trip id="start1Toend1_62" type="connected" color="1,1,0" from="start1" to="end1" depart="5465.685373" />
    <trip id="start2Toend1_73" type="connected" color="1,1,0" from="start2" to="end1" depart="5493.560815" />
    <trip id="start2Toend2_48" type="connected" color="1,1,0" from="start2" to="end2" depart="5499.713527" />
    <trip id="start1Toend2_57" type="connected" color="1,1,0" from="start1" to="end2" depart="5555.419336" />
    <trip id="start2Toend2_49" type="connected" color="1,1,0" from="start2" to="end2" depart="5573.949201" />
    <trip id="start1Toend2_58" type="connected" color="1,1,0" from="start1" to="end2" depart="5578.612960" />
    <trip id="start2Toend1_74" type="connected" color="1,1,0" from="start2" to="end1" depart="5607.574175" />
    <trip id="start2Toend2_50" type="connected" color="1,1,0" from="start2" to="end2" depart="5633.646765" />
    <trip id="start1Toend2_59" type="connected" color="1,1,0" from="start1" to="end2" depart="5696.569513" />
    <trip id="start2Toend2_51" type="connected" color="1,1,0" from="start2" to="end2" depart="5703.753644" />
    <trip id="start2Toend2_52" type="connected" color="1,1,0" from="start2" to="end2" depart="5741.353686" />
    <trip id="start1Toend1_63" type="connected" color="1,1,0" from="start1" to="end1" depart="5778.990575" />
    <trip id="start1Toend2_60" type="connected" color="1,1,0" from="start1" to="end2" depart="5781.132954" />
    <trip id="start2Toend1_75" type="connected" color="1,1,0" from="start2" to="end1" depart="5784.410211" />
    <trip id="start2Toend1_76" type="connected" color="1,1,0" from="start2" to="end1" depart="5798.306265" />
    <trip id="start2Toend2_53" type="connected" color="1,1,0" from="start2" to="end2" depart="5826.288811" />
    <trip id="start2Toend2_54" type="connected" color="1,1,0" from="start2" to="end2" depart="5845.300596" />
    <trip id="start2Toend1_77" type="connected" color="1,1,0" from="start2" to="end1" depart="5911.400083" />
    <trip id="start1Toend2_61" type="connected" color="1,1,0" from="start1" to="end2" depart="5938.188850" />
    <trip id="start1Toend2_62" type="connected" color="1,1,0" from="start1" to="end2" depart="5944.344518" />
    <trip id="start2Toend2_55" type="connected" color="1,1,0" from="start2" to="end2" depart="5947.168853" />