<?xml version="1.0" encoding="UTF-8"?>

<routes>

	<route id="route0" edges="start1 end1" />
    <route id="route1" edges="start1 end2" />
    <route id="route2" edges="start2 end1" />
    <route id="route3" edges="start2 end2" />


    <vType id="conventional" vClass="passenger" sigma="1" maxSpeed="40.0" color="red" accel="10.0"/>
    <vType id="connected" vClass="passenger" tau="1.3" maxSpeed="28.00" lcCooperative="0.0" color="1,1,0" lcStrategic="1.0" accel="3.0" decel="1.5" emergencyDecel="4.5" lcSpeedGain="0.3" sigma="0.0" lcKeepRight="0.3"/>
    <vType id="connected_pCatchupFollower" vClass="passenger" emergencyDecel="4.5" length="5" tau="0.1" maxSpeed="28.00" color="1,1,0" accel="10.3" decel="1.7" sigma="0.0" minGap="2.0"/>
    <vType id="connected_pCatchup" vClass="passenger" tau="0.1" emergencyDecel="4.5" maxSpeed="28.00" color="0,0.8,0.3" accel="10.3" decel="1.7" sigma="0.0" minGap="2.0"/>
    <vType id="connected_pFollower" vClass="passenger" tau="0.1" maxSpeed="28.00" color="1,1,0" accel="10.3" decel="1.7" sigma="0.0"  minGap="2.0" emergencyDecel="4.5"/>
    <vType id="connected_pLeader" vClass="passenger" length="5" tau="1.3" maxSpeed="28.00" lcCooperative="0.0" color="1,1,0" lcStrategic="1.0" accel="2.0" decel="1.5" emergencyDecel="4.5" lcSpeedGain="0.3" sigma="0.0" lcKeepRight="0.3"/>
    


	
    <trip id="start1Toend1_0" type="connected" color="1,1,0" from="start1" to="end1" depart="0.000000" />
    <trip id="start2Toend1_0" type="connected" color="1,1,0" from="start2" to="end1" depart="0.000000" />
    <trip id="start1Toend2_0" type="connected" color="1,1,0" from="start1" to="end2" depart="0.000000" />
    <trip id="start2Toend2_0" type="connected" color="1,1,0" from="start2" to="end2" depart="0.000000" />
    <trip id="start2Toend2_1" type="connected" color="1,1,0" from="start2" to="end2" depart="33.004778" />
    <trip id="start2Toend1_1" type="connected" color="1,1,0" from="start2" to="end1" depart="110.934119" />
    <trip id="start1Toend1_1" type="connected" color="1,1,0" from="start1" to="end1" depart="157.038349" />
    <trip id="start1Toend1_2" type="connected" color="1,1,0" from="start1" to="end1" depart="169.788402" />
    <trip id="start2Toend2_2" type="connected" color="1,1,0" from="start2" to="end2" depart="171.907473" />
    <trip id="start2Toend1_2" type="connected" color="1,1,0" from="start2" to="end1" depart="171.972707" />
    <trip id="start2Toend2_3" type="connected" color="1,1,0" from="start2" to="end2" depart="174.883474" />
    <trip id="start2Toend2_4" type="connected" color="1,1,0" from="start2" to="end2" depart="261.873131" />
    <trip id="start2Toend1_3" type="connected" color="1,1,0" from="start2" to="end1" depart="315.469785" />
    <trip id="start1Toend2_1" type="connected" color="1,1,0" from="start1" to="end2" depart="329.516786" />
    <trip id="start1Toend2_2" type="connected" color="1,1,0" from="start1" to="end2" depart="330.052636" />
    <trip id="start1Toend2_3" type="connected" color="1,1,0" from="start1" to="end2" depart="388.664839" />
    <trip id="start1Toend2_4" type="connected" color="1,1,0" from="start1" to="end2" depart="452.513900" />
    <trip id="start2Toend1_4" type="connected" color="1,1,0" from="start2" to="end1" depart="457.585021" />
    <trip id="start2Toend1_5" type="connected" color="1,1,0" from="start2" to="end1" depart="462.567007" />
    <trip id="start1Toend1_3" type="connected" color="1,1,0" from="start1" to="end1" depart="474.710057" />
    <trip id="start1Toend1_4" type="connected" color="1,1,0" from="start1" to="end1" depart="493.460386" />
    <trip id="start1Toend1_5" type="connected" color="1,1,0" from="start1" to="end1" depart="499.853262" />
    <trip id="start1Toend1_6" type="connected" color="1,1,0" from="start1" to="end1" depart="517.171049" />
    <trip id="start1Toend1_7" type="connected" color="1,1,0" from="start1" to="end1" depart="590.713914" />
    <trip id="start2Toend1_6" type="connected" color="1,1,0" from="start2" to="end1" depart="606.667927" />
    <trip id="start1Toend2_5" type="connected" color="1,1,0" from="start1" to="end2" depart="638.918844" />
    <trip id="start1Toend1_8" type="connected" color="1,1,0" from="start1" to="end1" depart="639.049887" />
    <trip id="start1Toend1_9" type="connected" color="1,1,0" from="start1" to="end1" depart="703.993971" />
    <trip id="start2Toend2_5" type="connected" color="1,1,0" from="start2" to="end2" depart="718.555402" />
    <trip id="start1Toend2_6" type="connected" color="1,1,0" from="start1" to="end2" depart="747.067789" />
    <trip id="start2Toend2_6" type="connected" color="1,1,0" from="start2" to="end2" depart="755.866800" />
    <trip id="start1Toend1_10" type="connected" color="1,1,0" from="start1" to="end1" depart="757.540154" />
    <trip id="start2Toend2_7" type="connected" color="1,1,0" from="start2" to="end2" depart="773.435251" />
    <trip id="start2Toend1_7" type="connected" color="1,1,0" from="start2" to="end1" depart="806.183892" />
    <trip id="start2Toend1_8" type="connected" color="1,1,0" from="start2" to="end1" depart="810.701421" />
    <trip id="start1Toend2_7" type="connected" color="1,1,0" from="start1" to="end2" depart="811.461055" />
    <trip id="start2Toend2_8" type="connected" color="1,1,0" from="start2" to="end2" depart="825.202566" />
    <trip id="start2Toend2_9" type="connected" color="1,1,0" from="start2" to="end2" depart="842.511387" />
    <trip id="start2Toend2_10" type="connected" color="1,1,0" from="start2" to="end2" depart="854.463203" />
    <trip id="start1Toend1_11" type="connected" color="1,1,0" from="start1" to="end1" depart="909.892891" />
    <trip id="start1Toend1_12" type="connected" color="1,1,0" from="start1" to="end1" depart="929.128043" />
    <trip id="start1Toend1_13" type="connected" color="1,1,0" from="start1" to="end1" depart="1010.035568" />
    <trip id="start1Toend1_14" type="connected" color="1,1,0" from="start1" to="end1" depart="1011.832716" />
    <trip id="start1Toend1_15" type="connected" color="1,1,0" from="start1" to="end1" depart="1049.653831" />
    <trip id="start2Toend2_11" type="connected" color="1,1,0" from="start2" to="end2" depart="1053.668095" />
    <trip id="start2Toend1_9" type="connected" color="1,1,0" from="start2" to="end1" depart="1068.810351" />
    <trip id="start1Toend2_8" type="connected" color="1,1,0" from="start1" to="end2" depart="1159.230144" />
    <trip id="start2Toend2_12" type="connected" color="1,1,0" from="start2" to="end2" depart="1179.359924" />
    <trip id="start2Toend2_13" type="connected" color="1,1,0" from="start2" to="end2" depart="1198.067631" />
    <trip id="start2Toend2_14" type="connected" color="1,1,0" from="start2" to="end2" depart="1228.181411" />
    <trip id="start2Toend2_15" type="connected" color="1,1,0" from="start2" to="end2" depart="1242.724190" />
    <trip id="start2Toend2_16" type="connected" color="1,1,0" from="start2" to="end2" depart="1276.484145" />
    <trip id="start1Toend2_9" type="connected" color="1,1,0" from="start1" to="end2" depart="1284.715373" />
    <trip id="start2Toend2_17" type="connected" color="1,1,0" from="start2" to="end2" depart="1296.166884" />
    <trip id="start1Toend2_10" type="connected" color="1,1,0" from="start1" to="end2" depart="1298.831520" />
    <trip id="start1Toend2_11" type="connected" color="1,1,0" from="start1" to="end2" depart="1335.105085" />
    <trip id="start1Toend1_16" type="connected" color="1,1,0" from="start1" to="end1" depart="1355.603191" />
    <trip id="start1Toend1_17" type="connected" color="1,1,0" from="start1" to="end1" depart="1373.692443" />
    <trip id="start2Toend2_18" type="connected" color="1,1,0" from="start2" to="end2" depart="1396.475281" />
    <trip id="start2Toend2_19" type="connected" color="1,1,0" from="start2" to="end2" depart="1424.357317" />
    <trip id="start2Toend2_20" type="connected" color="1,1,0" from="start2" to="end2" depart="1434.991996" />
    <trip id="start2Toend2_21" type="connected" color="1,1,0" from="start2" to="end2" depart="1483.532666" />
    <trip id="start2Toend2_22" type="connected" color="1,1,0" from="start2" to="end2" depart="1534.988671" />
    <trip id="start2Toend1_10" type="connected" color="1,1,0" from="start2" to="end1" depart="1542.980044" />
    <trip id="start2Toend2_23" type="connected" color="1,1,0" from="start2" to="end2" depart="1552.202134" />
    <trip id="start1Toend1_18" type="connected" color="1,1,0" from="start1" to="end1" depart="1564.292238" />
    <trip id="start2Toend1_11" type="connected" color="1,1,0" from="start2" to="end1" depart="1568.564818" />
    <trip id="start1Toend2_12" type="connected" color="1,1,0" from="start1" to="end2" depart="1574.379126" />
    <trip id="start2Toend1_12" type="connected" color="1,1,0" from="start2" to="end1" depart="1688.393923" />
    <trip id="start1Toend2_13" type="connected" color="1,1,0" from="start1" to="end2" depart="1744.130400" />
    <trip id="start2Toend1_13" type="connected" color="1,1,0" from="start2" to="end1" depart="1762.013101" />
    <trip id="start2Toend2_24" type="connected" color="1,1,0" from="start2" to="end2" depart="1824.259006" />
    <trip id="start1Toend1_19" type="connected" color="1,1,0" from="start1" to="end1" depart="1857.090861" />
    <trip id="start1Toend1_20" type="connected" color="1,1,0" from="start1" to="end1" depart="1863.207177" />
    <trip id="start2Toend2_25" type="connected" color="1,1,0" from="start2" to="end2" depart="1872.686452" />
    <trip id="start2Toend2_26" type="connected" color="1,1,0" from="start2" to="end2" depart="1883.386822" />
    <trip id="start1Toend2_14" type="connected" color="1,1,0" from="start1" to="end2" depart="1924.781677" />
    <trip id="start1Toend2_15" type="connected" color="1,1,0" from="start1" to="end2" depart="1949.436045" />
    <trip id="start1Toend1_21" type="connected" color="1,1,0" from="start1" to="end1" depart="2005.243735" />
    <trip id="start1Toend2_16" type="connected" color="1,1,0" from="start1" to="end2" depart="2052.577464" />
    <trip id="start2Toend1_14" type="connected" color="1,1,0" from="start2" to="end1" depart="2059.098991" />
    <trip id="start1Toend1_22" type="connected" color="1,1,0" from="start1" to="end1" depart="2061.418271" />
    <trip id="start1Toend2_17" type="connected" color="1,1,0" from="start1" to="end2" depart="2068.009539" />
    <trip id="start2Toend1_15" type="connected" color="1,1,0" from="start2" to="end1" depart="2126.885197" />
    <trip id="start1Toend2_18" type="connected" color="1,1,0" from="start1" to="end2" depart="2162.366801" />
    <trip id="start1Toend2_19" type="connected" color="1,1,0" from="start1" to="end2" depart="2217.159197" />
    <trip id="start2Toend1_16" type="connected" color="1,1,0" from="start2" to="end1" depart="2228.062880" />
    <trip id="start1Toend1_23" type="connected" color="1,1,0" from="start1" to="end1" depart="2238.893642" />
    <trip id="start2Toend2_27" type="connected" color="1,1,0" from="start2" to="end2" depart="2245.385870" />
    <trip id="start2Toend2_28" type="connected" color="1,1,0" from="start2" to="end2" depart="2263.779681" />
    <trip id="start2Toend2_29" type="connected" color="1,1,0" from="start2" to="end2" depart="2268.733833" />
    <trip id="start2Toend1_17" type="connected" color="1,1,0" from="start2" to="end1" depart="2272.960370" />
    <trip id="start2Toend1_18" type="connected" color="1,1,0" from="start2" to="end1" depart="2284.773787" />
    <trip id="start1Toend1_24" type="connected" color="1,1,0" from="start1" to="end1" depart="2300.655901" />
    <trip id="start2Toend2_30" type="connected" color="1,1,0" from="start2" to="end2" depart="2345.513060" />
    <trip id="start2Toend1_19" type="connected" color="1,1,0" from="start2" to="end1" depart="2440.250932" />
    <trip id="start1Toend1_25" type="connected" color="1,1,0" from="start1" to="end1" depart="2456.922662" />
    <trip id="start2Toend2_31" type="connected" color="1,1,0" from="start2" to="end2" depart="2462.866512" />
    <trip id="start1Toend2_20" type="connected" color="1,1,0" from="start1" to="end2" depart="2483.930274" />
    <trip id="start1Toend1_26" type="connected" color="1,1,0" from="start1" to="end1" depart="2484.568584" />
    <trip id="start2Toend1_20" type="connected" color="1,1,0" from="start2" to="end1" depart="2485.196383" />
    <trip id="start1Toend2_21" type="connected" color="1,1,0" from="start1" to="end2" depart="2516.405610" />
    <trip id="start1Toend2_22" type="connected" color="1,1,0" from="start1" to="end2" depart="2537.497444" />
    <trip id="start1Toend2_23" type="connected" color="1,1,0" from="start1" to="end2" depart="2552.643147" />
    <trip id="start1Toend2_24" type="connected" color="1,1,0" from="start1" to="end2" depart="2578.127423" />
    <trip id="start2Toend1_21" type="connected" color="1,1,0" from="start2" to="end1" depart="2600.547883" />
    <trip id="start2Toend2_32" type="connected" color="1,1,0" from="start2" to="end2" depart="2607.560624" />
    <trip id="start2Toend1_22" type="connected" color="1,1,0" from="start2" to="end1" depart="2609.823675" />
    <trip id="start2Toend2_33" type="connected" color="1,1,0" from="start2" to="end2" depart="2613.169499" />
    <trip id="start1Toend1_27" type="connected" color="1,1,0" from="start1" to="end1" depart="2616.290673" />
    <trip id="start1Toend1_28" type="connected" color="1,1,0" from="start1" to="end1" depart="2624.247139" />
    <trip id="start2Toend2_34" type="connected" color="1,1,0" from="start2" to="end2" depart="2648.461451" />
    <trip id="start1Toend1_29" type="connected" color="1,1,0" from="start1" to="end1" depart="2652.037733" />
    <trip id="start2Toend1_23" type="connected" color="1,1,0" from="start2" to="end1" depart="2691.058975" />
    <trip id="start1Toend1_30" type="connected" color="1,1,0" from="start1" to="end1" depart="2716.567401" />
    <trip id="start1Toend2_25" type="connected" color="1,1,0" from="start1" to="end2" depart="2768.558586" />
    <trip id="start1Toend1_31" type="connected" color="1,1,0" from="start1" to="end1" depart="2770.699179" />
    <trip id="start2Toend1_24" type="connected" color="1,1,0" from="start2" to="end1" depart="2788.315894" />
    <trip id="start2Toend1_25" type="connected" color="1,1,0" from="start2" to="end1" depart="2816.862114" />
    <trip id="start1Toend2_26" type="connected" color="1,1,0" from="start1" to="end2" depart="2839.512917" />
    <trip id="start2Toend2_35" type="connected" color="1,1,0" from="start2" to="end2" depart="2868.733400" />
    <trip id="start2Toend1_26" type="connected" color="1,1,0" from="start2" to="end1" depart="2875.513726" />
    <trip id="start2Toend2_36" type="connected" color="1,1,0" from="start2" to="end2" depart="2888.944785" />
    <trip id="start2Toend1_27" type="connected" color="1,1,0" from="start2" to="end1" depart="2957.465629" />
    <trip id="start1Toend2_27" type="connected" color="1,1,0" from="start1" to="end2" depart="3043.813868" />
    <trip id="start2Toend1_28" type="connected" color="1,1,0" from="start2" to="end1" depart="3044.999491" />
    <trip id="start2Toend1_29" type="connected" color="1,1,0" from="start2" to="end1" depart="3060.759177" />
    <trip id="start2Toend1_30" type="connected" color="1,1,0" from="start2" to="end1" depart="3076.023038" />
    <trip id="start2Toend1_31" type="connected" color="1,1,0" from="start2" to="end1" depart="3136.811717" />
    <trip id="start2Toend2_37" type="connected" color="1,1,0" from="start2" to="end2" depart="3138.604952" />
    <trip id="start1Toend1_32" type="connected" color="1,1,0" from="start1" to="end1" depart="3150.590385" />
    <trip id="start2Toend2_38" type="connected" color="1,1,0" from="start2" to="end2" depart="3205.434870" />
    <trip id="start2Toend1_32" type="connected" color="1,1,0" from="start2" to="end1" depart="3227.434524" />
    <trip id="start2Toend1_33" type="connected" color="1,1,0" from="start2" to="end1" depart="3235.229508" />
    <trip id="start2Toend1_34" type="connected" color="1,1,0" from="start2" to="end1" depart="3338.587248" />
    <trip id="start2Toend1_35" type="connected" color="1,1,0" from="start2" to="end1" depart="3378.473354" />
    <trip id="start1Toend2_28" type="connected" color="1,1,0" from="start1" to="end2" depart="3392.796352" />
    <trip id="start2Toend2_39" type="connected" color="1,1,0" from="start2" to="end2" depart="3399.848570" />
    <trip id="start1Toend1_33" type="connected" color="1,1,0" from="start1" to="end1" depart="3441.297854" />
    <trip id="start1Toend1_34" type="connected" color="1,1,0" from="start1" to="end1" depart="3449.125727" />
    <trip id="start1Toend1_35" type="connected" color="1,1,0" from="start1" to="end1" depart="3481.160852" />
    <trip id="start1Toend1_36" type="connected" color="1,1,0" from="start1" to="end1" depart="3503.147388" />
    <trip id="start2Toend2_40" type="connected" color="1,1,0" from="start2" to="end2" depart="3546.156131" />
    <trip id="start1Toend2_29" type="connected" color="1,1,0" from="start1" to="end2" depart="3571.331754" />
    <trip id="start2Toend2_41" type="connected" color="1,1,0" from="start2" to="end2" depart="3602.984304" />
    <trip id="start2Toend1_36" type="connected" color="1,1,0" from="start2" to="end1" depart="3603.200600" />
    <trip id="start2Toend1_37" type="connected" color="1,1,0" from="start2" to="end1" depart="3620.974639" />
    <trip id="start2Toend2_42" type="connected" color="1,1,0" from="start2" to="end2" depart="3654.555841" />
    <trip id="start2Toend2_43" type="connected" color="1,1,0" from="start2" to="end2" depart="3706.270538" />
    <trip id="start1Toend1_37" type="connected" color="1,1,0" from="start1" to="end1" depart="3711.081634" />
    <trip id="start2Toend1_38" type="connected" color="1,1,0" from="start2" to="end1" depart="3752.927192" />
    <trip id="start2Toend1_39" type="connected" color="1,1,0" from="start2" to="end1" depart="3777.761927" />
    <trip id="start1Toend2_30" type="connected" color="1,1,0" from="start1" to="end2" depart="3810.008027" />
    <trip id="start1Toend2_31" type="connected" color="1,1,0" from="start1" to="end2" depart="3835.592048" />
    <trip id="start2Toend2_44" type="connected" color="1,1,0" from="start2" to="end2" depart="3837.006840" />
    <trip id="start1Toend2_32" type="connected" color="1,1,0" from="start1" to="end2" depart="3859.544251" />
    <trip id="start1Toend1_38" type="connected" color="1,1,0" from="start1" to="end1" depart="3881.861704" />
    <trip id="start1Toend1_39" type="connected" color="1,1,0" from="start1" to="end1" depart="3887.061270" />
    <trip id="start1Toend1_40" type="connected" color="1,1,0" from="start1" to="end1" depart="3898.286326" />
    <trip id="start1Toend1_41" type="connected" color="1,1,0" from="start1" to="end1" depart="3914.875294" />
    <trip id="start1Toend1_42" type="connected" color="1,1,0" from="start1" to="end1" depart="3918.682778" />
    <trip id="start2Toend1_40" type="connected" color="1,1,0" from="start2" to="end1" depart="3922.992456" />
    <trip id="start1Toend1_43" type="connected" color="1,1,0" from="start1" to="end1" depart="3959.833545" />
    <trip id="start1Toend1_44" type="connected" color="1,1,0" from="start1" to="end1" depart="3964.129083" />
    <trip id="start1Toend2_33" type="connected" color="1,1,0" from="start1" to="end2" depart="3975.504342" />
    <trip id="start1Toend2_34" type="connected" color="1,1,0" from="start1" to="end2" depart="3987.213578" />
    <trip id="start2Toend1_41" type="connected" color="1,1,0" from="start2" to="end1" depart="4011.917207" />
    <trip id="start1Toend1_45" type="connected" color="1,1,0" from="start1" to="end1" depart="4012.168408" />
    <trip id="start1Toend2_35" type="connected" color="1,1,0" from="start1" to="end2" depart="4012.366669" />
    <trip id="start1Toend2_36" type="connected" color="1,1,0" from="start1" to="end2" depart="4021.884606" />
    <trip id="start2Toend2_45" type="connected" color="1,1,0" from="start2" to="end2" depart="4026.266107" />
    <trip id="start2Toend2_46" type="connected" color="1,1,0" from="start2" to="end2" depart="4036.967797" />
    <trip id="start1Toend1_46" type="connected" color="1,1,0" from="start1" to="end1" depart="4070.301412" />
    <trip id="start2Toend1_42" type="connected" color="1,1,0" from="start2" to="end1" depart="4092.872665" />
    <trip id="start1Toend1_47" type="connected" color="1,1,0" from="start1" to="end1" depart="4099.736158" />
    <trip id="start1Toend1_48" type="connected" color="1,1,0" from="start1" to="end1" depart="4112.238784" />
    <trip id="start2Toend1_43" type="connected" color="1,1,0" from="start2" to="end1" depart="4128.639033" />
    <trip id="start2Toend1_44" type="connected" color="1,1,0" from="start2" to="end1" depart="4134.771082" />
    <trip id="start1Toend1_49" type="connected" color="1,1,0" from="start1" to="end1" depart="4169.092447" />
    <trip id="start1Toend1_50" type="connected" color="1,1,0" from="start1" to="end1" depart="4184.165671" />
    <trip id="start2Toend2_47" type="connected" color="1,1,0" from="start2" to="end2" depart="4189.326953" />
    <trip id="start1Toend2_37" type="connected" color="1,1,0" from="start1" to="end2" depart="4207.814177" />
    <trip id="start1Toend1_51" type="connected" color="1,1,0" from="start1" to="end1" depart="4211.886734" />
    <trip id="start2Toend2_48" type="connected" color="1,1,0" from="start2" to="end2" depart="4221.878920" />
    <trip id="start2Toend2_49" type="connected" color="1,1,0" from="start2" to="end2" depart="4251.426217" />
    <trip id="start1Toend2_38" type="connected" color="1,1,0" from="start1" to="end2" depart="4297.663251" />
    <trip id="start2Toend2_50" type="connected" color="1,1,0" from="start2" to="end2" depart="4313.714419" />
    <trip id="start2Toend2_51" type="connected" color="1,1,0" from="start2" to="end2" depart="4317.880546" />
    <trip id="start2Toend1_45" type="connected" color="1,1,0" from="start2" to="end1" depart="4328.560596" />
    <trip id="start1Toend1_52" type="connected" color="1,1,0" from="start1" to="end1" depart="4378.655703" />
    <trip id="start2Toend2_52" type="connected" color="1,1,0" from="start2" to="end2" depart="4388.862810" />
    <trip id="start1Toend1_53" type="connected" color="1,1,0" from="start1" to="end1" depart="4442.309251" />
    <trip id="start2Toend1_46" type="connected" color="1,1,0" from="start2" to="end1" depart="4446.870178" />
    <trip id="start1Toend1_54" type="connected" color="1,1,0" from="start1" to="end1" depart="4467.450130" />
    <trip id="start1Toend1_55" type="connected" color="1,1,0" from="start1" to="end1" depart="4478.020237" />
    <trip id="start2Toend2_53" type="connected" color="1,1,0" from="start2" to="end2" depart="4480.811785" />
    <trip id="start2Toend2_54" type="connected" color="1,1,0" from="start2" to="end2" depart="4489.929708" />
    <trip id="start1Toend1_56" type="connected" color="1,1,0" from="start1" to="end1" depart="4502.970392" />
    <trip id="start2Toend2_55" type="connected" color="1,1,0" from="start2" to="end2" depart="4523.693442" />
    <trip id="start1Toend2_39" type="connected" color="1,1,0" from="start1" to="end2" depart="4537.188404" />
    <trip id="start2Toend2_56" type="connected" color="1,1,0" from="start2" to="end2" depart="4552.166059" />
    <trip id="start2Toend2_57" type="connected" color="1,1,0" from="start2" to="end2" depart="4558.542122" />
    <trip id="start2Toend1_47" type="connected" color="1,1,0" from="start2" to="end1" depart="4561.913403" />
    <trip id="start1Toend1_57" type="connected" color="1,1,0" from="start1" to="end1" depart="4567.960722" />
    <trip id="start2Toend1_48" type="connected" color="1,1,0" from="start2" to="end1" depart="4570.488388" />
    <trip id="start1Toend1_58" type="connected" color="1,1,0" from="start1" to="end1" depart="4616.114353" />
    <trip id="start1Toend1_59" type="connected" color="1,1,0" from="start1" to="end1" depart="4634.202881" />
    <trip id="start1Toend1_60" type="connected" color="1,1,0" from="start1" to="end1" depart="4663.012040" />
    <trip id="start1Toend1_61" type="connected" color="1,1,0" from="start1" to="end1" depart="4667.828986" />
    <trip id="start1Toend1_62" type="connected" color="1,1,0" from="start1" to="end1" depart="4673.090820" />
    <trip id="start2Toend1_49" type="connected" color="1,1,0" from="start2" to="end1" depart="4679.583948" />
    <trip id="start1Toend1_63" type="connected" color="1,1,0" from="start1" to="end1" depart="4696.290438" />
    <trip id="start1Toend1_64" type="connected" color="1,1,0" from="start1" to="end1" depart="4719.678891" />
    <trip id="start2Toend1_50" type="connected" color="1,1,0" from="start2" to="end1" depart="4721.190707" />
    <trip id="start2Toend1_51" type="connected" color="1,1,0" from="start2" to="end1" depart="4729.325902" />
    <trip id="start1Toend1_65" type="connected" color="1,1,0" from="start1" to="end1" depart="4744.342243" />
    <trip id="start1Toend1_66" type="connected" color="1,1,0" from="start1" to="end1" depart="4749.897952" />
    <trip id="start1Toend2_40" type="connected" color="1,1,0" from="start1" to="end2" depart="4755.145216" />
    <trip id="start1Toend2_41" type="connected" color="1,1,0" from="start1" to="end2" depart="4765.400424" />
    <trip id="start2Toend1_52" type="connected" color="1,1,0" from="start2" to="end1" depart="4780.658698" />
    <trip id="start2Toend2_58" type="connected" color="1,1,0" from="start2" to="end2" depart="4807.234787" />
    <trip id="start1Toend1_67" type="connected" color="1,1,0" from="start1" to="end1" depart="4807.515492" />
    <trip id="start2Toend2_59" type="connected" color="1,1,0" from="start2" to="end2" depart="4825.641581" />
    <trip id="start2Toend1_53" type="connected" color="1,1,0" from="start2" to="end1" depart="4879.390824" />
    <trip id="start1Toend1_68" type="connected" color="1,1,0" from="start1" to="end1" depart="4887.613435" />
    <trip id="start1Toend1_69" type="connected" color="1,1,0" from="start1" to="end1" depart="4890.185256" />
    <trip id="start2Toend2_60" type="connected" color="1,1,0" from="start2" to="end2" depart="4900.058760" />
    <trip id="start1Toend1_70" type="connected" color="1,1,0" from="start1" to="end1" depart="4909.374760" />
    <trip id="start2Toend2_61" type="connected" color="1,1,0" from="start2" to="end2" depart="4913.741141" />
    <trip id="start1Toend1_71" type="connected" color="1,1,0" from="start1" to="end1" depart="4965.931216" />
    <trip id="start1Toend2_42" type="connected" color="1,1,0" from="start1" to="end2" depart="4967.871764" />
    <trip id="start1Toend2_43" type="connected" color="1,1,0" from="start1" to="end2" depart="4999.622713" />
    <trip id="start1Toend1_72" type="connected" color="1,1,0" from="start1" to="end1" depart="5001.680878" />
    <trip id="start1Toend1_73" type="connected" color="1,1,0" from="start1" to="end1" depart="5010.953331" />
    <trip id="start1Toend2_44" type="connected" color="1,1,0" from="start1" to="end2" depart="5056.902445" />
    <trip id="start2Toend2_62" type="connected" color="1,1,0" from="start2" to="end2" depart="5073.576129" />
    <trip id="start1Toend2_45" type="connected" color="1,1,0" from="start1" to="end2" depart="5094.725004" />
    <trip id="start1Toend1_74" type="connected" color="1,1,0" from="start1" to="end1" depart="5121.251748" />
    <trip id="start2Toend1_54" type="connected" color="1,1,0" from="start2" to="end1" depart="5153.778874" />
    <trip id="start2Toend1_55" type="connected" color="1,1,0" from="start2" to="end1" depart="5168.063952" />
    <trip id="start1Toend2_46" type="connected" color="1,1,0" from="start1" to="end2" depart="5177.549888" />
    <trip id="start1Toend1_75" type="connected" color="1,1,0" from="start1" to="end1" depart="5189.839807" />
    <trip id="start2Toend1_56" type="connected" color="1,1,0" from="start2" to="end1" depart="5204.430634" />
    <trip id="start1Toend2_47" type="connected" color="1,1,0" from="start1" to="end2" depart="5219.821957" />
    <trip id="start1Toend1_76" type="connected" color="1,1,0" from="start1" to="end1" depart="5222.583561" />
    <trip id="start1Toend1_77" type="connected" color="1,1,0" from="start1" to="end1" depart="5230.032986" />
    <trip id="start1Toend1_78" type="connected" color="1,1,0" from="start1" to="end1" depart="5252.621632" />
    <trip id="start2Toend1_57" type="connected" color="1,1,0" from="start2" to="end1" depart="5285.614257" />
    <trip id="start1Toend2_48" type="connected" color="1,1,0" from="start1" to="end2" depart="5302.208735" />
    <trip id="start2Toend1_58" type="connected" color="1,1,0" from="start2" to="end1" depart="5322.926446" />
    <trip id="start2Toend1_59" type="connected" color="1,1,0" from="start2" to="end1" depart="5344.667601" />
    <trip id="start1Toend1_79" type="connected" color="1,1,0" from="start1" to="end1" depart="5349.963672" />
    <trip id="start2Toend1_60" type="connected" color="1,1,0" from="start2" to="end1" depart="5358.862006" />
    <trip id="start2Toend2_63" type="connected" color="1,1,0" from="start2" to="end2" depart="5363.369333" />
    <trip id="start1Toend2_49" type="connected" color="1,1,0" from="start1" to="end2" depart="5363.858496" />
    <trip id="start1Toend1_80" type="connected" color="1,1,0" from="start1" to="end1" depart="5368.297667" />
    <trip id="start2Toend2_64" type="connected" color="1,1,0" from="start2" to="end2" depart="5376.520672" />
    <trip id="start1Toend2_50" type="connected" color="1,1,0" from="start1" to="end2" depart="5387.317363" />
    <trip id="start2Toend2_65" type="connected" color="1,1,0" from="start2" to="end2" depart="5388.216585" />
    <trip id="start2Toend2_66" type="connected" color="1,1,0" from="start2" to="end2" depart="5421.922214" />
    <trip id="start1Toend1_81" type="connected" color="1,1,0" from="start1" to="end1" depart="5425.645577" />