<?xml version="1.0" encoding="UTF-8"?>

<routes>

	<route id="route0" edges="start1 end1" />
    <route id="route1" edges="start1 end2" />
    <route id="route2" edges="start2 end1" />
    <route id="route3" edges="start2 end2" />


    <vType id="conventional" vClass="passenger" sigma="1" maxSpeed="40.0" color="red" accel="10.0"/>
    <vType id="connected" vClass="passenger" tau="1.3" maxSpeed="28.00" lcCooperative="0.0" color="1,1,0" lcStrategic="1.0" accel="3.0" decel="1.5" emergencyDecel="4.5" lcSpeedGain="0.3" sigma="0.0" lcKeepRight="0.3"/>
    <vType id="connected_pCatchupFollower" vClass="passenger" emergencyDecel="4.5" length="5" tau="0.1" maxSpeed="28.00" color="1,1,0" accel="10.3" decel="1.7" sigma="0.0" minGap="2.0"/>
    <vType id="connected_pCatchup" vClass="passenger" tau="0.1" emergencyDecel="4.5" maxSpeed="28.00" color="0,0.8,0.3" accel="10.3" decel="1.7" sigma="0.0" minGap="2.0"/>
    <vType id="connected_pFollower" vClass="passenger" tau="0.1" maxSpeed="28.00" color="1,1,0" accel="10.3" decel="1.7" sigma="0.0"  minGap="2.0" emergencyDecel="4.5"/>
    <vType id="connected_pLeader" vClass="passenger" length="5" tau="1.3" maxSpeed="28.00" lcCooperative="0.0" color="1,1,0" lcStrategic="1.0" accel="2.0" decel="1.5" emergencyDecel="4.5" lcSpeedGain="0.3" sigma="0.0" lcKeepRight="0.3"/>
    


	
    <trip id="start1Toend1_0" type="connected" color="1,1,0" from="start1" to="end1" depart="0.000000" />
    <trip id="start2Toend1_0" type="connected" color="1,1,0" from="start2" to="end1" depart="0.000000" />
    <trip id="start1Toend2_0" type="connected" color="1,1,0" from="start1" to="end2" depart="0.000000" />
    <trip id="start2Toend2_0" type="connected" color="1,1,0" from="start2" to="end2" depart="0.000000" />
    <trip id="start2Toend2_1" type="connected" color="1,1,0" from="start2" to="end2" depart="15.688365" />
    <trip id="start1Toend1_1" type="connected" color="1,1,0" from="start1" to="end1" depart="18.381757" />
    <trip id="start1Toend2_1" type="connected" color="1,1,0" from="start1" to="end2" depart="19.032206" />
    <trip id="start2Toend1_1" type="connected" color="1,1,0" from="start2" to="end1" depart="78.141687" />
    <trip id="start2Toend1_2" type="connected" color="1,1,0" from="start2" to="end1" depart="95.199025" />
    <trip id="start1Toend2_2" type="connected" color="1,1,0" from="start1" to="end2" depart="112.127650" />
    <trip id="start1Toend2_3" type="connected" color="1,1,0" from="start1" to="end2" depart="149.863664" />
    <trip id="start1Toend2_4" type="connected" color="1,1,0" from="start1" to="end2" depart="182.706438" />
    <trip id="start2Toend1_3" type="connected" color="1,1,0" from="start2" to="end1" depart="185.121317" />
    <trip id="start2Toend1_4" type="connected" color="1,1,0" from="start2" to="end1" depart="189.206018" />
    <trip id="start1Toend1_2" type="connected" color="1,1,0" from="start1" to="end1" depart="206.096293" />
    <trip id="start2Toend2_2" type="connected" color="1,1,0" from="start2" to="end2" depart="251.312118" />
    <trip id="start2Toend1_5" type="connected" color="1,1,0" from="start2" to="end1" depart="315.311395" />
    <trip id="start2Toend2_3" type="connected" color="1,1,0" from="start2" to="end2" depart="322.170640" />
    <trip id="start1Toend2_5" type="connected" color="1,1,0" from="start1" to="end2" depart="332.227081" />
    <trip id="start2Toend1_6" type="connected" color="1,1,0" from="start2" to="end1" depart="352.155192" />
    <trip id="start2Toend2_4" type="connected" color="1,1,0" from="start2" to="end2" depart="364.345083" />
    <trip id="start2Toend1_7" type="connected" color="1,1,0" from="start2" to="end1" depart="370.434814" />
    <trip id="start2Toend2_5" type="connected" color="1,1,0" from="start2" to="end2" depart="380.744697" />
    <trip id="start2Toend2_6" type="connected" color="1,1,0" from="start2" to="end2" depart="387.468738" />
    <trip id="start1Toend2_6" type="connected" color="1,1,0" from="start1" to="end2" depart="462.277908" />
    <trip id="start2Toend1_8" type="connected" color="1,1,0" from="start2" to="end1" depart="469.468427" />
    <trip id="start2Toend2_7" type="connected" color="1,1,0" from="start2" to="end2" depart="563.557784" />
    <trip id="start2Toend2_8" type="connected" color="1,1,0" from="start2" to="end2" depart="670.603993" />
    <trip id="start1Toend2_7" type="connected" color="1,1,0" from="start1" to="end2" depart="720.284709" />
    <trip id="start1Toend1_3" type="connected" color="1,1,0" from="start1" to="end1" depart="734.143562" />
    <trip id="start1Toend1_4" type="connected" color="1,1,0" from="start1" to="end1" depart="755.738555" />
    <trip id="start1Toend2_8" type="connected" color="1,1,0" from="start1" to="end2" depart="783.606897" />
    <trip id="start1Toend1_5" type="connected" color="1,1,0" from="start1" to="end1" depart="792.856965" />
    <trip id="start1Toend2_9" type="connected" color="1,1,0" from="start1" to="end2" depart="814.607539" />
    <trip id="start2Toend2_9" type="connected" color="1,1,0" from="start2" to="end2" depart="824.729199" />
    <trip id="start1Toend1_6" type="connected" color="1,1,0" from="start1" to="end1" depart="927.021442" />
    <trip id="start1Toend2_10" type="connected" color="1,1,0" from="start1" to="end2" depart="964.775309" />
    <trip id="start2Toend1_9" type="connected" color="1,1,0" from="start2" to="end1" depart="981.227755" />
    <trip id="start1Toend2_11" type="connected" color="1,1,0" from="start1" to="end2" depart="1001.565177" />
    <trip id="start1Toend1_7" type="connected" color="1,1,0" from="start1" to="end1" depart="1029.950114" />
    <trip id="start1Toend2_12" type="connected" color="1,1,0" from="start1" to="end2" depart="1030.596291" />
    <trip id="start2Toend1_10" type="connected" color="1,1,0" from="start2" to="end1" depart="1077.228297" />
    <trip id="start1Toend1_8" type="connected" color="1,1,0" from="start1" to="end1" depart="1104.359906" />
    <trip id="start2Toend2_10" type="connected" color="1,1,0" from="start2" to="end2" depart="1124.518411" />
    <trip id="start2Toend1_11" type="connected" color="1,1,0" from="start2" to="end1" depart="1139.854110" />
    <trip id="start2Toend1_12" type="connected" color="1,1,0" from="start2" to="end1" depart="1167.795613" />
    <trip id="start2Toend1_13" type="connected" color="1,1,0" from="start2" to="end1" depart="1176.141360" />
    <trip id="start1Toend1_9" type="connected" color="1,1,0" from="start1" to="end1" depart="1180.181551" />
    <trip id="start2Toend1_14" type="connected" color="1,1,0" from="start2" to="end1" depart="1231.075009" />
    <trip id="start2Toend2_11" type="connected" color="1,1,0" from="start2" to="end2" depart="1239.118441" />
    <trip id="start2Toend1_15" type="connected" color="1,1,0" from="start2" to="end1" depart="1249.479328" />
    <trip id="start2Toend1_16" type="connected" color="1,1,0" from="start2" to="end1" depart="1269.626203" />
    <trip id="start1Toend2_13" type="connected" color="1,1,0" from="start1" to="end2" depart="1285.121793" />
    <trip id="start1Toend1_10" type="connected" color="1,1,0" from="start1" to="end1" depart="1388.976428" />
    <trip id="start1Toend1_11" type="connected" color="1,1,0" from="start1" to="end1" depart="1390.764557" />
    <trip id="start1Toend1_12" type="connected" color="1,1,0" from="start1" to="end1" depart="1406.607724" />
    <trip id="start2Toend2_12" type="connected" color="1,1,0" from="start2" to="end2" depart="1415.117821" />
    <trip id="start2Toend2_13" type="connected" color="1,1,0" from="start2" to="end2" depart="1418.178098" />
    <trip id="start1Toend1_13" type="connected" color="1,1,0" from="start1" to="end1" depart="1429.999146" />
    <trip id="start2Toend2_14" type="connected" color="1,1,0" from="start2" to="end2" depart="1434.910845" />
    <trip id="start2Toend2_15" type="connected" color="1,1,0" from="start2" to="end2" depart="1453.288309" />
    <trip id="start1Toend2_14" type="connected" color="1,1,0" from="start1" to="end2" depart="1468.246044" />
    <trip id="start2Toend1_17" type="connected" color="1,1,0" from="start2" to="end1" depart="1493.423380" />
    <trip id="start1Toend1_14" type="connected" color="1,1,0" from="start1" to="end1" depart="1506.220308" />
    <trip id="start1Toend2_15" type="connected" color="1,1,0" from="start1" to="end2" depart="1516.699846" />
    <trip id="start2Toend2_16" type="connected" color="1,1,0" from="start2" to="end2" depart="1530.870956" />
    <trip id="start1Toend1_15" type="connected" color="1,1,0" from="start1" to="end1" depart="1588.156124" />
    <trip id="start2Toend1_18" type="connected" color="1,1,0" from="start2" to="end1" depart="1594.899127" />
    <trip id="start2Toend1_19" type="connected" color="1,1,0" from="start2" to="end1" depart="1602.262432" />
    <trip id="start2Toend1_20" type="connected" color="1,1,0" from="start2" to="end1" depart="1612.102026" />
    <trip id="start2Toend1_21" type="connected" color="1,1,0" from="start2" to="end1" depart="1620.185213" />
    <trip id="start2Toend1_22" type="connected" color="1,1,0" from="start2" to="end1" depart="1691.728352" />
    <trip id="start2Toend2_17" type="connected" color="1,1,0" from="start2" to="end2" depart="1704.151618" />
    <trip id="start2Toend2_18" type="connected" color="1,1,0" from="start2" to="end2" depart="1712.738398" />
    <trip id="start1Toend1_16" type="connected" color="1,1,0" from="start1" to="end1" depart="1715.550111" />
    <trip id="start2Toend1_23" type="connected" color="1,1,0" from="start2" to="end1" depart="1760.341366" />
    <trip id="start2Toend2_19" type="connected" color="1,1,0" from="start2" to="end2" depart="1788.932368" />
    <trip id="start2Toend2_20" type="connected" color="1,1,0" from="start2" to="end2" depart="1841.549585" />
    <trip id="start2Toend2_21" type="connected" color="1,1,0" from="start2" to="end2" depart="1846.082366" />
    <trip id="start1Toend1_17" type="connected" color="1,1,0" from="start1" to="end1" depart="1854.276609" />
    <trip id="start1Toend2_16" type="connected" color="1,1,0" from="start1" to="end2" depart="1879.383320" />
    <trip id="start1Toend2_17" type="connected" color="1,1,0" from="start1" to="end2" depart="1882.144187" />
    <trip id="start2Toend1_24" type="connected" color="1,1,0" from="start2" to="end1" depart="1901.742274" />
    <trip id="start1Toend1_18" type="connected" color="1,1,0" from="start1" to="end1" depart="1921.584139" />
    <trip id="start1Toend2_18" type="connected" color="1,1,0" from="start1" to="end2" depart="1930.693877" />
    <trip id="start2Toend1_25" type="connected" color="1,1,0" from="start2" to="end1" depart="1966.982711" />
    <trip id="start2Toend1_26" type="connected" color="1,1,0" from="start2" to="end1" depart="2033.811973" />
    <trip id="start1Toend2_19" type="connected" color="1,1,0" from="start1" to="end2" depart="2085.189170" />
    <trip id="start2Toend1_27" type="connected" color="1,1,0" from="start2" to="end1" depart="2094.840808" />
    <trip id="start1Toend1_19" type="connected" color="1,1,0" from="start1" to="end1" depart="2119.966068" />
    <trip id="start2Toend2_22" type="connected" color="1,1,0" from="start2" to="end2" depart="2122.450595" />
    <trip id="start1Toend1_20" type="connected" color="1,1,0" from="start1" to="end1" depart="2178.659700" />
    <trip id="start1Toend1_21" type="connected" color="1,1,0" from="start1" to="end1" depart="2221.322152" />
    <trip id="start2Toend2_23" type="connected" color="1,1,0" from="start2" to="end2" depart="2261.800398" />
    <trip id="start1Toend2_20" type="connected" color="1,1,0" from="start1" to="end2" depart="2263.686870" />
    <trip id="start2Toend1_28" type="connected" color="1,1,0" from="start2" to="end1" depart="2266.043987" />
    <trip id="start1Toend2_21" type="connected" color="1,1,0" from="start1" to="end2" depart="2293.780208" />
    <trip id="start2Toend1_29" type="connected" color="1,1,0" from="start2" to="end1" depart="2298.737326" />
    <trip id="start1Toend2_22" type="connected" color="1,1,0" from="start1" to="end2" depart="2310.108351" />
    <trip id="start1Toend1_22" type="connected" color="1,1,0" from="start1" to="end1" depart="2310.740158" />
    <trip id="start2Toend2_24" type="connected" color="1,1,0" from="start2" to="end2" depart="2326.086451" />
    <trip id="start1Toend2_23" type="connected" color="1,1,0" from="start1" to="end2" depart="2326.660913" />
    <trip id="start1Toend2_24" type="connected" color="1,1,0" from="start1" to="end2" depart="2362.642879" />
    <trip id="start2Toend2_25" type="connected" color="1,1,0" from="start2" to="end2" depart="2377.657146" />
    <trip id="start1Toend2_25" type="connected" color="1,1,0" from="start1" to="end2" depart="2386.975488" />
    <trip id="start1Toend2_26" type="connected" color="1,1,0" from="start1" to="end2" depart="2391.515634" />
    <trip id="start1Toend1_23" type="connected" color="1,1,0" from="start1" to="end1" depart="2410.628479" />
    <trip id="start2Toend1_30" type="connected" color="1,1,0" from="start2" to="end1" depart="2411.136935" />
    <trip id="start1Toend2_27" type="connected" color="1,1,0" from="start1" to="end2" depart="2420.384334" />
    <trip id="start2Toend2_26" type="connected" color="1,1,0" from="start2" to="end2" depart="2512.750239" />
    <trip id="start2Toend2_27" type="connected" color="1,1,0" from="start2" to="end2" depart="2563.102119" />
    <trip id="start2Toend1_31" type="connected" color="1,1,0" from="start2" to="end1" depart="2582.273438" />
    <trip id="start1Toend1_24" type="connected" color="1,1,0" from="start1" to="end1" depart="2601.199275" />
    <trip id="start2Toend2_28" type="connected" color="1,1,0" from="start2" to="end2" depart="2662.873062" />
    <trip id="start2Toend1_32" type="connected" color="1,1,0" from="start2" to="end1" depart="2736.856783" />
    <trip id="start1Toend1_25" type="connected" color="1,1,0" from="start1" to="end1" depart="2763.238410" />
    <trip id="start2Toend2_29" type="connected" color="1,1,0" from="start2" to="end2" depart="2764.031875" />
    <trip id="start2Toend1_33" type="connected" color="1,1,0" from="start2" to="end1" depart="2790.365651" />
    <trip id="start1Toend2_28" type="connected" color="1,1,0" from="start1" to="end2" depart="2819.133062" />
    <trip id="start2Toend1_34" type="connected" color="1,1,0" from="start2" to="end1" depart="2846.650973" />
    <trip id="start2Toend2_30" type="connected" color="1,1,0" from="start2" to="end2" depart="2897.338255" />
    <trip id="start1Toend1_26" type="connected" color="1,1,0" from="start1" to="end1" depart="2899.865581" />
    <trip id="start1Toend1_27" type="connected" color="1,1,0" from="start1" to="end1" depart="2922.263521" />
    <trip id="start1Toend2_29" type="connected" color="1,1,0" from="start1" to="end2" depart="2935.488449" />
    <trip id="start2Toend2_31" type="connected" color="1,1,0" from="start2" to="end2" depart="2936.460660" />
    <trip id="start1Toend1_28" type="connected" color="1,1,0" from="start1" to="end1" depart="2969.539906" />
    <trip id="start2Toend1_35" type="connected" color="1,1,0" from="start2" to="end1" depart="3005.243575" />
    <trip id="start1Toend1_29" type="connected" color="1,1,0" from="start1" to="end1" depart="3008.383394" />
    <trip id="start2Toend1_36" type="connected" color="1,1,0" from="start2" to="end1" depart="3063.258532" />
    <trip id="start2Toend1_37" type="connected" color="1,1,0" from="start2" to="end1" depart="3091.715285" />
    <trip id="start1Toend2_30" type="connected" color="1,1,0" from="start1" to="end2" depart="3123.348246" />
    <trip id="start1Toend2_31" type="connected" color="1,1,0" from="start1" to="end2" depart="3173.520221" />
    <trip id="start2Toend1_38" type="connected" color="1,1,0" from="start2" to="end1" depart="3203.303430" />
    <trip id="start2Toend1_39" type="connected" color="1,1,0" from="start2" to="end1" depart="3229.705035" />
    <trip id="start2Toend1_40" type="connected" color="1,1,0" from="start2" to="end1" depart="3232.065279" />
    <trip id="start1Toend1_30" type="connected" color="1,1,0" from="start1" to="end1" depart="3273.399356" />
    <trip id="start2Toend2_32" type="connected" color="1,1,0" from="start2" to="end2" depart="3278.349268" />
    <trip id="start1Toend2_32" type="connected" color="1,1,0" from="start1" to="end2" depart="3279.127312" />
    <trip id="start1Toend1_31" type="connected" color="1,1,0" from="start1" to="end1" depart="3295.693571" />
    <trip id="start2Toend2_33" type="connected" color="1,1,0" from="start2" to="end2" depart="3301.475641" />
    <trip id="start2Toend1_41" type="connected" color="1,1,0" from="start2" to="end1" depart="3326.070855" />
    <trip id="start2Toend1_42" type="connected" color="1,1,0" from="start2" to="end1" depart="3360.823656" />
    <trip id="start1Toend1_32" type="connected" color="1,1,0" from="start1" to="end1" depart="3369.701550" />
    <trip id="start1Toend1_33" type="connected" color="1,1,0" from="start1" to="end1" depart="3371.032790" />
    <trip id="start2Toend1_43" type="connected" color="1,1,0" from="start2" to="end1" depart="3387.526941" />
    <trip id="start2Toend1_44" type="connected" color="1,1,0" from="start2" to="end1" depart="3408.443600" />
    <trip id="start2Toend1_45" type="connected" color="1,1,0" from="start2" to="end1" depart="3410.029133" />
    <trip id="start2Toend2_34" type="connected" color="1,1,0" from="start2" to="end2" depart="3429.185440" />
    <trip id="start2Toend1_46" type="connected" color="1,1,0" from="start2" to="end1" depart="3490.737314" />
    <trip id="start1Toend1_34" type="connected" color="1,1,0" from="start1" to="end1" depart="3514.317160" />
    <trip id="start1Toend1_35" type="connected" color="1,1,0" from="start1" to="end1" depart="3520.119359" />
    <trip id="start2Toend2_35" type="connected" color="1,1,0" from="start2" to="end2" depart="3541.156010" />
    <trip id="start2Toend1_47" type="connected" color="1,1,0" from="start2" to="end1" depart="3547.765093" />
    <trip id="start1Toend1_36" type="connected" color="1,1,0" from="start1" to="end1" depart="3548.900940" />
    <trip id="start1Toend1_37" type="connected" color="1,1,0" from="start1" to="end1" depart="3550.798007" />
    <trip id="start1Toend2_33" type="connected" color="1,1,0" from="start1" to="end2" depart="3554.155006" />
    <trip id="start1Toend2_34" type="connected" color="1,1,0" from="start1" to="end2" depart="3567.529154" />
    <trip id="start1Toend2_35" type="connected" color="1,1,0" from="start1" to="end2" depart="3581.874814" />
    <trip id="start1Toend1_38" type="connected" color="1,1,0" from="start1" to="end1" depart="3602.107346" />
    <trip id="start2Toend1_48" type="connected" color="1,1,0" from="start2" to="end1" depart="3617.402731" />
    <trip id="start2Toend2_36" type="connected" color="1,1,0" from="start2" to="end2" depart="3625.814497" />
    <trip id="start1Toend1_39" type="connected" color="1,1,0" from="start1" to="end1" depart="3626.932478" />
    <trip id="start1Toend2_36" type="connected" color="1,1,0" from="start1" to="end2" depart="3634.363257" />
    <trip id="start1Toend1_40" type="connected" color="1,1,0" from="start1" to="end1" depart="3635.189465" />
    <trip id="start2Toend1_49" type="connected" color="1,1,0" from="start2" to="end1" depart="3641.780774" />
    <trip id="start1Toend2_37" type="connected" color="1,1,0" from="start1" to="end2" depart="3655.769410" />
    <trip id="start1Toend1_41" type="connected" color="1,1,0" from="start1" to="end1" depart="3656.377421" />
    <trip id="start2Toend1_50" type="connected" color="1,1,0" from="start2" to="end1" depart="3721.488357" />
    <trip id="start1Toend1_42" type="connected" color="1,1,0" from="start1" to="end1" depart="3758.461673" />
    <trip id="start1Toend1_43" type="connected" color="1,1,0" from="start1" to="end1" depart="3797.581354" />
    <trip id="start2Toend1_51" type="connected" color="1,1,0" from="start2" to="end1" depart="3804.872411" />
    <trip id="start1Toend1_44" type="connected" color="1,1,0" from="start1" to="end1" depart="3841.370019" />
    <trip id="start2Toend1_52" type="connected" color="1,1,0" from="start2" to="end1" depart="3856.173739" />
    <trip id="start1Toend2_38" type="connected" color="1,1,0" from="start1" to="end2" depart="3858.984111" />
    <trip id="start2Toend2_37" type="connected" color="1,1,0" from="start2" to="end2" depart="3860.368648" />
    <trip id="start2Toend2_38" type="connected" color="1,1,0" from="start2" to="end2" depart="3864.236978" />
    <trip id="start1Toend2_39" type="connected" color="1,1,0" from="start1" to="end2" depart="3869.656508" />
    <trip id="start1Toend1_45" type="connected" color="1,1,0" from="start1" to="end1" depart="3881.206629" />
    <trip id="start2Toend1_53" type="connected" color="1,1,0" from="start2" to="end1" depart="3894.950276" />
    <trip id="start2Toend1_54" type="connected" color="1,1,0" from="start2" to="end1" depart="3904.420350" />
    <trip id="start1Toend1_46" type="connected" color="1,1,0" from="start1" to="end1" depart="3913.057437" />
    <trip id="start2Toend2_39" type="connected" color="1,1,0" from="start2" to="end2" depart="3915.750257" />
    <trip id="start2Toend1_55" type="connected" color="1,1,0" from="start2" to="end1" depart="3926.503109" />
    <trip id="start1Toend2_40" type="connected" color="1,1,0" from="start1" to="end2" depart="3940.779820" />
    <trip id="start2Toend1_56" type="connected" color="1,1,0" from="start2" to="end1" depart="3952.525614" />
    <trip id="start2Toend1_57" type="connected" color="1,1,0" from="start2" to="end1" depart="3954.790579" />
    <trip id="start1Toend2_41" type="connected" color="1,1,0" from="start1" to="end2" depart="3963.994910" />
    <trip id="start1Toend1_47" type="connected" color="1,1,0" from="start1" to="end1" depart="3987.506991" />
    <trip id="start2Toend2_40" type="connected" color="1,1,0" from="start2" to="end2" depart="3988.494826" />
    <trip id="start1Toend1_48" type="connected" color="1,1,0" from="start1" to="end1" depart="4011.306761" />
    <trip id="start2Toend1_58" type="connected" color="1,1,0" from="start2" to="end1" depart="4014.904347" />
    <trip id="start1Toend2_42" type="connected" color="1,1,0" from="start1" to="end2" depart="4037.063437" />
    <trip id="start1Toend2_43" type="connected" color="1,1,0" from="start1" to="end2" depart="4047.757025" />
    <trip id="start2Toend1_59" type="connected" color="1,1,0" from="start2" to="end1" depart="4051.970182" />
    <trip id="start1Toend2_44" type="connected" color="1,1,0" from="start1" to="end2" depart="4093.219834" />
    <trip id="start1Toend2_45" type="connected" color="1,1,0" from="start1" to="end2" depart="4127.175059" />
    <trip id="start1Toend1_49" type="connected" color="1,1,0" from="start1" to="end1" depart="4130.573111" />
    <trip id="start2Toend2_41" type="connected" color="1,1,0" from="start2" to="end2" depart="4140.586296" />
    <trip id="start2Toend1_60" type="connected" color="1,1,0" from="start2" to="end1" depart="4141.634054" />
    <trip id="start2Toend1_61" type="connected" color="1,1,0" from="start2" to="end1" depart="4163.739483" />
    <trip id="start2Toend1_62" type="connected" color="1,1,0" from="start2" to="end1" depart="4165.514141" />
    <trip id="start2Toend1_63" type="connected" color="1,1,0" from="start2" to="end1" depart="4195.335404" />
    <trip id="start2Toend1_64" type="connected" color="1,1,0" from="start2" to="end1" depart="4205.790401" />
    <trip id="start1Toend1_50" type="connected" color="1,1,0" from="start1" to="end1" depart="4256.533502" />
    <trip id="start2Toend1_65" type="connected" color="1,1,0" from="start2" to="end1" depart="4260.171208" />
    <trip id="start1Toend1_51" type="connected" color="1,1,0" from="start1" to="end1" depart="4261.619215" />
    <trip id="start2Toend2_42" type="connected" color="1,1,0" from="start2" to="end2" depart="4268.252509" />
    <trip id="start2Toend1_66" type="connected" color="1,1,0" from="start2" to="end1" depart="4275.516004" />
    <trip id="start1Toend2_46" type="connected" color="1,1,0" from="start1" to="end2" depart="4281.648105" />
    <trip id="start1Toend2_47" type="connected" color="1,1,0" from="start1" to="end2" depart="4289.811542" />
    <trip id="start1Toend1_52" type="connected" color="1,1,0" from="start1" to="end1" depart="4312.235538" />
    <trip id="start2Toend1_67" type="connected" color="1,1,0" from="start2" to="end1" depart="4318.462191" />
    <trip id="start1Toend1_53" type="connected" color="1,1,0" from="start1" to="end1" depart="4319.721862" />
    <trip id="start1Toend1_54" type="connected" color="1,1,0" from="start1" to="end1" depart="4320.681588" />
    <trip id="start2Toend2_43" type="connected" color="1,1,0" from="start2" to="end2" depart="4321.204913" />
    <trip id="start1Toend1_55" type="connected" color="1,1,0" from="start1" to="end1" depart="4321.948119" />
    <trip id="start2Toend2_44" type="connected" color="1,1,0" from="start2" to="end2" depart="4356.286542" />
    <trip id="start2Toend2_45" type="connected" color="1,1,0" from="start2" to="end2" depart="4379.635436" />
    <trip id="start2Toend2_46" type="connected" color="1,1,0" from="start2" to="end2" depart="4391.041596" />
    <trip id="start2Toend1_68" type="connected" color="1,1,0" from="start2" to="end1" depart="4408.597397" />
    <trip id="start1Toend2_48" type="connected" color="1,1,0" from="start1" to="end2" depart="4425.658274" />
    <trip id="start1Toend1_56" type="connected" color="1,1,0" from="start1" to="end1" depart="4440.566587" />
    <trip id="start2Toend1_69" type="connected" color="1,1,0" from="start2" to="end1" depart="4448.373248" />
    <trip id="start2Toend2_47" type="connected" color="1,1,0" from="start2" to="end2" depart="4468.648898" />
    <trip id="start1Toend1_57" type="connected" color="1,1,0" from="start1" to="end1" depart="4473.914136" />
    <trip id="start1Toend2_49" type="connected" color="1,1,0" from="start1" to="end2" depart="4504.073602" />
    <trip id="start2Toend1_70" type="connected" color="1,1,0" from="start2" to="end1" depart="4508.493659" />
    <trip id="start2Toend2_48" type="connected" color="1,1,0" from="start2" to="end2" depart="4508.986359" />
    <trip id="start1Toend2_50" type="connected" color="1,1,0" from="start1" to="end2" depart="4510.358296" />
    <trip id="start2Toend1_71" type="connected" color="1,1,0" from="start2" to="end1" depart="4514.575279" />
    <trip id="start1Toend2_51" type="connected" color="1,1,0" from="start1" to="end2" depart="4515.362444" />
    <trip id="start1Toend1_58" type="connected" color="1,1,0" from="start1" to="end1" depart="4517.605624" />
    <trip id="start1Toend1_59" type="connected" color="1,1,0" from="start1" to="end1" depart="4529.757342" />
    <trip id="start2Toend2_49" type="connected" color="1,1,0" from="start2" to="end2" depart="4578.222785" />
    <trip id="start1Toend2_52" type="connected" color="1,1,0" from="start1" to="end2" depart="4588.538988" />
    <trip id="start2Toend2_50" type="connected" color="1,1,0" from="start2" to="end2" depart="4589.601891" />
    <trip id="start1Toend1_60" type="connected" color="1,1,0" from="start1" to="end1" depart="4638.935634" />
    <trip id="start2Toend1_72" type="connected" color="1,1,0" from="start2" to="end1" depart="4645.953386" />
    <trip id="start2Toend2_51" type="connected" color="1,1,0" from="start2" to="end2" depart="4648.148846" />
    <trip id="start2Toend1_73" type="connected" color="1,1,0" from="start2" to="end1" depart="4662.270690" />
    <trip id="start1Toend1_61" type="connected" color="1,1,0" from="start1" to="end1" depart="4693.286418" />
    <trip id="start1Toend2_53" type="connected" color="1,1,0" from="start1" to="end2" depart="4715.769791" />
    <trip id="start1Toend1_62" type="connected" color="1,1,0" from="start1" to="end1" depart="4760.222856" />
    <trip id="start2Toend2_52" type="connected" color="1,1,0" from="start2" to="end2" depart="4762.928149" />
    <trip id="start2Toend2_53" type="connected" color="1,1,0" from="start2" to="end2" depart="4770.268497" />
    <trip id="start1Toend1_63" type="connected" color="1,1,0" from="start1" to="end1" depart="4780.708852" />
    <trip id="start2Toend1_74" type="connected" color="1,1,0" from="start2" to="end1" depart="4802.725421" />
    <trip id="start1Toend2_54" type="connected" color="1,1,0" from="start1" to="end2" depart="4811.782614" />
    <trip id="start2Toend2_54" type="connected" color="1,1,0" from="start2" to="end2" depart="4863.661377" />
    <trip id="start1Toend2_55" type="connected" color="1,1,0" from="start1" to="end2" depart="4881.414635" />
    <trip id="start2Toend1_75" type="connected" color="1,1,0" from="start2" to="end1" depart="4882.428692" />
    <trip id="start1Toend2_56" type="connected" color="1,1,0" from="start1" to="end2" depart="4908.180287" />
    <trip id="start2Toend1_76" type="connected" color="1,1,0" from="start2" to="end1" depart="4919.000331" />
    <trip id="start1Toend2_57" type="connected" color="1,1,0" from="start1" to="end2" depart="4952.283509" />
    <trip id="start2Toend1_77" type="connected" color="1,1,0" from="start2" to="end1" depart="4983.459327" />
    <trip id="start1Toend2_58" type="connected" color="1,1,0" from="start1" to="end2" depart="4995.055490" />
    <trip id="start1Toend2_59" type="connected" color="1,1,0" from="start1" to="end2" depart="5002.333341" />
    <trip id="start2Toend1_78" type="connected" color="1,1,0" from="start2" to="end1" depart="5018.915570" />
    <trip id="start1Toend2_60" type="connected" color="1,1,0" from="start1" to="end2" depart="5024.997674" />
    <trip id="start1Toend1_64" type="connected" color="1,1,0" from="start1" to="end1" depart="5027.193194" />
    <trip id="start2Toend2_55" type="connected" color="1,1,0" from="start2" to="end2" depart="5032.471129" />