<?xml version="1.0" encoding="UTF-8"?>

<routes>

	<route id="route0" edges="start1 end1" />
    <route id="route1" edges="start1 end2" />
    <route id="route2" edges="start2 end1" />
    <route id="route3" edges="start2 end2" />


    <vType id="conventional" vClass="passenger" sigma="1" maxSpeed="40.0" color="red" accel="10.0"/>
    <vType id="connected" vClass="passenger" tau="1.3" maxSpeed="28.00" lcCooperative="0.0" color="1,1,0" lcStrategic="1.0" accel="3.0" decel="1.5" emergencyDecel="4.5" lcSpeedGain="0.3" sigma="0.0" lcKeepRight="0.3"/>
    <vType id="connected_pCatchupFollower" vClass="passenger" emergencyDecel="4.5" length="5" tau="0.1" maxSpeed="28.00" color="1,1,0" accel="10.3" decel="1.7" sigma="0.0" minGap="2.0"/>
    <vType id="connected_pCatchup" vClass="passenger" tau="0.1" emergencyDecel="4.5" maxSpeed="28.00" color="0,0.8,0.3" accel="10.3" decel="1.7" sigma="0.0" minGap="2.0"/>
    <vType id="connected_pFollower" vClass="passenger" tau="0.1" maxSpeed="28.00" color="1,1,0" accel="10.3" decel="1.7" sigma="0.0"  minGap="2.0" emergencyDecel="4.5"/>
    <vType id="connected_pLeader" vClass="passenger" length="5" tau="1.3" maxSpeed="28.00" lcCooperative="0.0" color="1,1,0" lcStrategic="1.0" accel="2.0" decel="1.5" emergencyDecel="4.5" lcSpeedGain="0.3" sigma="0.0" lcKeepRight="0.3"/>
    


	
    <trip id="start1Toend1_0" type="connected" color="1,1,0" from="start1" to="end1" depart="0.000000" />
    <trip id="start2Toend1_0" type="connected" color="1,1,0" from="start2" to="end1" depart="0.000000" />
    <trip id="start1Toend2_0" type="connected" color="1,1,0" from="start1" to="end2" depart="0.000000" />
    <trip id="start2Toend2_0" type="connected" color="1,1,0" from="start2" to="end2" depart="0.000000" />
    <trip id="start2Toend1_1" type="connected" color="1,1,0" from="start2" to="end1" depart="0.202957" />
    <trip id="start1Toend2_1" type="connected" color="1,1,0" from="start1" to="end2" depart="6.996604" />
    <trip id="start1Toend2_2" type="connected" color="1,1,0" from="start1" to="end2" depart="40.376200" />
    <trip id="start2Toend1_2" type="connected" color="1,1,0" from="start2" to="end1" depart="55.476756" />
    <trip id="start1Toend2_3" type="connected" color="1,1,0" from="start1" to="end2" depart="68.802953" />
    <trip id="start2Toend1_3" type="connected" color="1,1,0" from="start2" to="end1" depart="112.832857" />
    <trip id="start2Toend2_1" type="connected" color="1,1,0" from="start2" to="end2" depart="125.008752" />
    <trip id="start1Toend1_1" type="connected" color="1,1,0" from="start1" to="end1" depart="140.995472" />
    <trip id="start1Toend2_4" type="connected" color="1,1,0" from="start1" to="end2" depart="159.125253" />
    <trip id="start1Toend2_5" type="connected" color="1,1,0" from="start1" to="end2" depart="182.697603" />
    <trip id="start2Toend2_2" type="connected" color="1,1,0" from="start2" to="end2" depart="231.201656" />
    <trip id="start2Toend2_3" type="connected" color="1,1,0" from="start2" to="end2" depart="253.306259" />
    <trip id="start1Toend1_2" type="connected" color="1,1,0" from="start1" to="end1" depart="253.745711" />
    <trip id="start2Toend1_4" type="connected" color="1,1,0" from="start2" to="end1" depart="261.530661" />
    <trip id="start1Toend2_6" type="connected" color="1,1,0" from="start1" to="end2" depart="270.102205" />
    <trip id="start2Toend2_4" type="connected" color="1,1,0" from="start2" to="end2" depart="276.231495" />
    <trip id="start2Toend1_5" type="connected" color="1,1,0" from="start2" to="end1" depart="282.416760" />
    <trip id="start1Toend1_3" type="connected" color="1,1,0" from="start1" to="end1" depart="287.953245" />
    <trip id="start1Toend1_4" type="connected" color="1,1,0" from="start1" to="end1" depart="288.038667" />
    <trip id="start1Toend1_5" type="connected" color="1,1,0" from="start1" to="end1" depart="314.252251" />
    <trip id="start1Toend1_6" type="connected" color="1,1,0" from="start1" to="end1" depart="319.549661" />
    <trip id="start2Toend1_6" type="connected" color="1,1,0" from="start2" to="end1" depart="371.852565" />
    <trip id="start1Toend1_7" type="connected" color="1,1,0" from="start1" to="end1" depart="379.672052" />
    <trip id="start1Toend2_7" type="connected" color="1,1,0" from="start1" to="end2" depart="382.541375" />
    <trip id="start2Toend2_5" type="connected" color="1,1,0" from="start2" to="end2" depart="446.717869" />
    <trip id="start2Toend2_6" type="connected" color="1,1,0" from="start2" to="end2" depart="488.263873" />
    <trip id="start2Toend1_7" type="connected" color="1,1,0" from="start2" to="end1" depart="555.737792" />
    <trip id="start1Toend2_8" type="connected" color="1,1,0" from="start1" to="end2" depart="578.733332" />
    <trip id="start1Toend2_9" type="connected" color="1,1,0" from="start1" to="end2" depart="625.293442" />
    <trip id="start1Toend1_8" type="connected" color="1,1,0" from="start1" to="end1" depart="685.797534" />
    <trip id="start1Toend2_10" type="connected" color="1,1,0" from="start1" to="end2" depart="713.063001" />
    <trip id="start1Toend1_9" type="connected" color="1,1,0" from="start1" to="end1" depart="725.525441" />
    <trip id="start2Toend2_7" type="connected" color="1,1,0" from="start2" to="end2" depart="736.873787" />
    <trip id="start2Toend2_8" type="connected" color="1,1,0" from="start2" to="end2" depart="756.457829" />
    <trip id="start1Toend2_11" type="connected" color="1,1,0" from="start1" to="end2" depart="762.112524" />
    <trip id="start1Toend1_10" type="connected" color="1,1,0" from="start1" to="end1" depart="782.951618" />
    <trip id="start1Toend1_11" type="connected" color="1,1,0" from="start1" to="end1" depart="785.739239" />
    <trip id="start2Toend1_8" type="connected" color="1,1,0" from="start2" to="end1" depart="789.027680" />
    <trip id="start2Toend2_9" type="connected" color="1,1,0" from="start2" to="end2" depart="800.323885" />
    <trip id="start1Toend1_12" type="connected" color="1,1,0" from="start1" to="end1" depart="806.089932" />
    <trip id="start1Toend2_12" type="connected" color="1,1,0" from="start1" to="end2" depart="822.245734" />
    <trip id="start1Toend2_13" type="connected" color="1,1,0" from="start1" to="end2" depart="832.917640" />
    <trip id="start2Toend1_9" type="connected" color="1,1,0" from="start2" to="end1" depart="833.556607" />
    <trip id="start2Toend1_10" type="connected" color="1,1,0" from="start2" to="end1" depart="849.374937" />
    <trip id="start1Toend2_14" type="connected" color="1,1,0" from="start1" to="end2" depart="893.043840" />
    <trip id="start1Toend1_13" type="connected" color="1,1,0" from="start1" to="end1" depart="901.683137" />
    <trip id="start2Toend2_10" type="connected" color="1,1,0" from="start2" to="end2" depart="929.176779" />
    <trip id="start2Toend1_11" type="connected" color="1,1,0" from="start2" to="end1" depart="992.052761" />
    <trip id="start2Toend1_12" type="connected" color="1,1,0" from="start2" to="end1" depart="1009.426889" />
    <trip id="start1Toend2_15" type="connected" color="1,1,0" from="start1" to="end2" depart="1015.240931" />
    <trip id="start2Toend1_13" type="connected" color="1,1,0" from="start2" to="end1" depart="1029.151003" />
    <trip id="start2Toend2_11" type="connected" color="1,1,0" from="start2" to="end2" depart="1071.852194" />
    <trip id="start1Toend2_16" type="connected" color="1,1,0" from="start1" to="end2" depart="1105.030470" />
    <trip id="start1Toend2_17" type="connected" color="1,1,0" from="start1" to="end2" depart="1126.293482" />
    <trip id="start1Toend1_14" type="connected" color="1,1,0" from="start1" to="end1" depart="1139.580515" />
    <trip id="start1Toend1_15" type="connected" color="1,1,0" from="start1" to="end1" depart="1145.942256" />
    <trip id="start1Toend2_18" type="connected" color="1,1,0" from="start1" to="end2" depart="1160.965050" />
    <trip id="start2Toend1_14" type="connected" color="1,1,0" from="start2" to="end1" depart="1175.321208" />
    <trip id="start1Toend1_16" type="connected" color="1,1,0" from="start1" to="end1" depart="1192.340012" />
    <trip id="start1Toend2_19" type="connected" color="1,1,0" from="start1" to="end2" depart="1211.061738" />
    <trip id="start1Toend1_17" type="connected" color="1,1,0" from="start1" to="end1" depart="1226.442584" />
    <trip id="start2Toend2_12" type="connected" color="1,1,0" from="start2" to="end2" depart="1265.422549" />
    <trip id="start2Toend2_13" type="connected" color="1,1,0" from="start2" to="end2" depart="1287.930166" />
    <trip id="start1Toend2_20" type="connected" color="1,1,0" from="start1" to="end2" depart="1321.910726" />
    <trip id="start2Toend1_15" type="connected" color="1,1,0" from="start2" to="end1" depart="1323.501485" />
    <trip id="start1Toend1_18" type="connected" color="1,1,0" from="start1" to="end1" depart="1340.040917" />
    <trip id="start1Toend1_19" type="connected" color="1,1,0" from="start1" to="end1" depart="1385.382552" />
    <trip id="start2Toend2_14" type="connected" color="1,1,0" from="start2" to="end2" depart="1386.805367" />
    <trip id="start2Toend1_16" type="connected" color="1,1,0" from="start2" to="end1" depart="1441.429020" />
    <trip id="start1Toend1_20" type="connected" color="1,1,0" from="start1" to="end1" depart="1476.539966" />
    <trip id="start1Toend1_21" type="connected" color="1,1,0" from="start1" to="end1" depart="1540.307064" />
    <trip id="start1Toend2_21" type="connected" color="1,1,0" from="start1" to="end2" depart="1554.486988" />
    <trip id="start2Toend1_17" type="connected" color="1,1,0" from="start2" to="end1" depart="1566.036394" />
    <trip id="start2Toend2_15" type="connected" color="1,1,0" from="start2" to="end2" depart="1574.519878" />
    <trip id="start2Toend2_16" type="connected" color="1,1,0" from="start2" to="end2" depart="1583.476916" />
    <trip id="start2Toend2_17" type="connected" color="1,1,0" from="start2" to="end2" depart="1604.160944" />
    <trip id="start2Toend2_18" type="connected" color="1,1,0" from="start2" to="end2" depart="1606.934798" />
    <trip id="start1Toend2_22" type="connected" color="1,1,0" from="start1" to="end2" depart="1668.188220" />
    <trip id="start1Toend2_23" type="connected" color="1,1,0" from="start1" to="end2" depart="1680.435747" />
    <trip id="start1Toend2_24" type="connected" color="1,1,0" from="start1" to="end2" depart="1694.023903" />
    <trip id="start2Toend1_18" type="connected" color="1,1,0" from="start2" to="end1" depart="1700.111444" />
    <trip id="start2Toend2_19" type="connected" color="1,1,0" from="start2" to="end2" depart="1720.726872" />
    <trip id="start2Toend2_20" type="connected" color="1,1,0" from="start2" to="end2" depart="1742.794983" />
    <trip id="start1Toend2_25" type="connected" color="1,1,0" from="start1" to="end2" depart="1806.588202" />
    <trip id="start1Toend1_22" type="connected" color="1,1,0" from="start1" to="end1" depart="1864.278904" />
    <trip id="start2Toend1_19" type="connected" color="1,1,0" from="start2" to="end1" depart="1875.104742" />
    <trip id="start2Toend2_21" type="connected" color="1,1,0" from="start2" to="end2" depart="1896.992867" />
    <trip id="start1Toend1_23" type="connected" color="1,1,0" from="start1" to="end1" depart="1903.632808" />
    <trip id="start2Toend2_22" type="connected" color="1,1,0" from="start2" to="end2" depart="1907.417221" />
    <trip id="start2Toend1_20" type="connected" color="1,1,0" from="start2" to="end1" depart="1911.868763" />
    <trip id="start2Toend2_23" type="connected" color="1,1,0" from="start2" to="end2" depart="1924.377632" />
    <trip id="start1Toend1_24" type="connected" color="1,1,0" from="start1" to="end1" depart="1936.690192" />
    <trip id="start1Toend1_25" type="connected" color="1,1,0" from="start1" to="end1" depart="1940.061785" />
    <trip id="start1Toend1_26" type="connected" color="1,1,0" from="start1" to="end1" depart="1955.392625" />
    <trip id="start2Toend1_21" type="connected" color="1,1,0" from="start2" to="end1" depart="1998.217788" />
    <trip id="start2Toend1_22" type="connected" color="1,1,0" from="start2" to="end1" depart="2003.140737" />
    <trip id="start2Toend2_24" type="connected" color="1,1,0" from="start2" to="end2" depart="2006.586445" />
    <trip id="start2Toend2_25" type="connected" color="1,1,0" from="start2" to="end2" depart="2027.162969" />
    <trip id="start1Toend2_26" type="connected" color="1,1,0" from="start1" to="end2" depart="2034.226935" />
    <trip id="start1Toend2_27" type="connected" color="1,1,0" from="start1" to="end2" depart="2052.883151" />
    <trip id="start2Toend1_23" type="connected" color="1,1,0" from="start2" to="end1" depart="2117.840312" />
    <trip id="start2Toend1_24" type="connected" color="1,1,0" from="start2" to="end1" depart="2123.144607" />
    <trip id="start2Toend2_26" type="connected" color="1,1,0" from="start2" to="end2" depart="2151.829015" />
    <trip id="start1Toend1_27" type="connected" color="1,1,0" from="start1" to="end1" depart="2175.179745" />
    <trip id="start1Toend1_28" type="connected" color="1,1,0" from="start1" to="end1" depart="2178.399315" />
    <trip id="start1Toend1_29" type="connected" color="1,1,0" from="start1" to="end1" depart="2188.510936" />
    <trip id="start2Toend2_27" type="connected" color="1,1,0" from="start2" to="end2" depart="2223.206987" />
    <trip id="start2Toend1_25" type="connected" color="1,1,0" from="start2" to="end1" depart="2231.943937" />
    <trip id="start1Toend2_28" type="connected" color="1,1,0" from="start1" to="end2" depart="2237.632077" />
    <trip id="start2Toend2_28" type="connected" color="1,1,0" from="start2" to="end2" depart="2239.163628" />
    <trip id="start2Toend1_26" type="connected" color="1,1,0" from="start2" to="end1" depart="2258.653665" />
    <trip id="start2Toend2_29" type="connected" color="1,1,0" from="start2" to="end2" depart="2265.406718" />
    <trip id="start1Toend1_30" type="connected" color="1,1,0" from="start1" to="end1" depart="2270.671912" />
    <trip id="start2Toend2_30" type="connected" color="1,1,0" from="start2" to="end2" depart="2374.605730" />
    <trip id="start2Toend1_27" type="connected" color="1,1,0" from="start2" to="end1" depart="2374.696030" />
    <trip id="start2Toend2_31" type="connected" color="1,1,0" from="start2" to="end2" depart="2404.028560" />
    <trip id="start2Toend2_32" type="connected" color="1,1,0" from="start2" to="end2" depart="2406.168008" />
    <trip id="start1Toend1_31" type="connected" color="1,1,0" from="start1" to="end1" depart="2417.970792" />
    <trip id="start1Toend1_32" type="connected" color="1,1,0" from="start1" to="end1" depart="2426.365991" />
    <trip id="start1Toend1_33" type="connected" color="1,1,0" from="start1" to="end1" depart="2428.523490" />
    <trip id="start2Toend2_33" type="connected" color="1,1,0" from="start2" to="end2" depart="2454.037180" />
    <trip id="start1Toend2_29" type="connected" color="1,1,0" from="start1" to="end2" depart="2571.883142" />
    <trip id="start2Toend1_28" type="connected" color="1,1,0" from="start2" to="end1" depart="2596.351558" />
    <trip id="start2Toend1_29" type="connected" color="1,1,0" from="start2" to="end1" depart="2625.107297" />
    <trip id="start1Toend2_30" type="connected" color="1,1,0" from="start1" to="end2" depart="2677.304191" />
    <trip id="start1Toend2_31" type="connected" color="1,1,0" from="start1" to="end2" depart="2740.293648" />
    <trip id="start2Toend1_30" type="connected" color="1,1,0" from="start2" to="end1" depart="2744.973564" />
    <trip id="start2Toend1_31" type="connected" color="1,1,0" from="start2" to="end1" depart="2778.599202" />
    <trip id="start1Toend1_34" type="connected" color="1,1,0" from="start1" to="end1" depart="2787.824747" />
    <trip id="start2Toend1_32" type="connected" color="1,1,0" from="start2" to="end1" depart="2818.109721" />
    <trip id="start2Toend2_34" type="connected" color="1,1,0" from="start2" to="end2" depart="2882.727855" />
    <trip id="start1Toend2_32" type="connected" color="1,1,0" from="start1" to="end2" depart="2907.019394" />
    <trip id="start2Toend1_33" type="connected" color="1,1,0" from="start2" to="end1" depart="2934.625448" />
    <trip id="start1Toend1_35" type="connected" color="1,1,0" from="start1" to="end1" depart="2973.171076" />
    <trip id="start1Toend1_36" type="connected" color="1,1,0" from="start1" to="end1" depart="2982.240161" />
    <trip id="start2Toend1_34" type="connected" color="1,1,0" from="start2" to="end1" depart="3075.489526" />
    <trip id="start2Toend2_35" type="connected" color="1,1,0" from="start2" to="end2" depart="3130.581620" />
    <trip id="start2Toend1_35" type="connected" color="1,1,0" from="start2" to="end1" depart="3136.418793" />
    <trip id="start2Toend1_36" type="connected" color="1,1,0" from="start2" to="end1" depart="3207.596651" />
    <trip id="start1Toend2_33" type="connected" color="1,1,0" from="start1" to="end2" depart="3223.800409" />
    <trip id="start2Toend1_37" type="connected" color="1,1,0" from="start2" to="end1" depart="3252.648777" />
    <trip id="start1Toend1_37" type="connected" color="1,1,0" from="start1" to="end1" depart="3262.580243" />
    <trip id="start1Toend2_34" type="connected" color="1,1,0" from="start1" to="end2" depart="3310.237732" />
    <trip id="start2Toend1_38" type="connected" color="1,1,0" from="start2" to="end1" depart="3332.222293" />
    <trip id="start2Toend2_36" type="connected" color="1,1,0" from="start2" to="end2" depart="3381.527841" />
    <trip id="start2Toend1_39" type="connected" color="1,1,0" from="start2" to="end1" depart="3407.520796" />
    <trip id="start1Toend2_35" type="connected" color="1,1,0" from="start1" to="end2" depart="3416.594259" />
    <trip id="start1Toend2_36" type="connected" color="1,1,0" from="start1" to="end2" depart="3425.717894" />
    <trip id="start2Toend1_40" type="connected" color="1,1,0" from="start2" to="end1" depart="3489.696659" />
    <trip id="start1Toend1_38" type="connected" color="1,1,0" from="start1" to="end1" depart="3495.708976" />
    <trip id="start2Toend1_41" type="connected" color="1,1,0" from="start2" to="end1" depart="3497.484071" />
    <trip id="start1Toend2_37" type="connected" color="1,1,0" from="start1" to="end2" depart="3499.462578" />
    <trip id="start1Toend2_38" type="connected" color="1,1,0" from="start1" to="end2" depart="3509.159619" />
    <trip id="start1Toend2_39" type="connected" color="1,1,0" from="start1" to="end2" depart="3519.572662" />
    <trip id="start2Toend2_37" type="connected" color="1,1,0" from="start2" to="end2" depart="3571.990409" />
    <trip id="start1Toend2_40" type="connected" color="1,1,0" from="start1" to="end2" depart="3581.116863" />
    <trip id="start2Toend2_38" type="connected" color="1,1,0" from="start2" to="end2" depart="3584.720406" />
    <trip id="start1Toend1_39" type="connected" color="1,1,0" from="start1" to="end1" depart="3590.592278" />
    <trip id="start1Toend2_41" type="connected" color="1,1,0" from="start1" to="end2" depart="3597.314474" />
    <trip id="start1Toend1_40" type="connected" color="1,1,0" from="start1" to="end1" depart="3661.834467" />
    <trip id="start2Toend1_42" type="connected" color="1,1,0" from="start2" to="end1" depart="3734.500175" />
    <trip id="start1Toend1_41" type="connected" color="1,1,0" from="start1" to="end1" depart="3844.585070" />
    <trip id="start1Toend1_42" type="connected" color="1,1,0" from="start1" to="end1" depart="3853.550391" />
    <trip id="start2Toend2_39" type="connected" color="1,1,0" from="start2" to="end2" depart="3854.195120" />
    <trip id="start2Toend1_43" type="connected" color="1,1,0" from="start2" to="end1" depart="3875.911267" />
    <trip id="start1Toend2_42" type="connected" color="1,1,0" from="start1" to="end2" depart="3892.299357" />
    <trip id="start1Toend2_43" type="connected" color="1,1,0" from="start1" to="end2" depart="3894.488924" />
    <trip id="start2Toend2_40" type="connected" color="1,1,0" from="start2" to="end2" depart="3908.242134" />
    <trip id="start1Toend2_44" type="connected" color="1,1,0" from="start1" to="end2" depart="3929.894883" />
    <trip id="start2Toend2_41" type="connected" color="1,1,0" from="start2" to="end2" depart="3964.896763" />
    <trip id="start2Toend2_42" type="connected" color="1,1,0" from="start2" to="end2" depart="3982.428037" />
    <trip id="start2Toend1_44" type="connected" color="1,1,0" from="start2" to="end1" depart="3985.747017" />
    <trip id="start1Toend1_43" type="connected" color="1,1,0" from="start1" to="end1" depart="4007.243689" />
    <trip id="start2Toend2_43" type="connected" color="1,1,0" from="start2" to="end2" depart="4074.447652" />
    <trip id="start2Toend2_44" type="connected" color="1,1,0" from="start2" to="end2" depart="4085.917226" />
    <trip id="start1Toend2_45" type="connected" color="1,1,0" from="start1" to="end2" depart="4088.715213" />
    <trip id="start1Toend1_44" type="connected" color="1,1,0" from="start1" to="end1" depart="4091.125011" />
    <trip id="start2Toend2_45" type="connected" color="1,1,0" from="start2" to="end2" depart="4107.883807" />
    <trip id="start1Toend1_45" type="connected" color="1,1,0" from="start1" to="end1" depart="4118.320050" />
    <trip id="start2Toend1_45" type="connected" color="1,1,0" from="start2" to="end1" depart="4136.789495" />
    <trip id="start2Toend2_46" type="connected" color="1,1,0" from="start2" to="end2" depart="4153.158686" />
    <trip id="start1Toend2_46" type="connected" color="1,1,0" from="start1" to="end2" depart="4198.133603" />
    <trip id="start2Toend2_47" type="connected" color="1,1,0" from="start2" to="end2" depart="4215.488341" />
    <trip id="start1Toend1_46" type="connected" color="1,1,0" from="start1" to="end1" depart="4270.750788" />
    <trip id="start1Toend2_47" type="connected" color="1,1,0" from="start1" to="end2" depart="4337.533303" />
    <trip id="start1Toend1_47" type="connected" color="1,1,0" from="start1" to="end1" depart="4338.336319" />
    <trip id="start2Toend2_48" type="connected" color="1,1,0" from="start2" to="end2" depart="4358.069240" />
    <trip id="start2Toend2_49" type="connected" color="1,1,0" from="start2" to="end2" depart="4360.757564" />
    <trip id="start1Toend1_48" type="connected" color="1,1,0" from="start1" to="end1" depart="4395.201941" />
    <trip id="start2Toend2_50" type="connected" color="1,1,0" from="start2" to="end2" depart="4416.155265" />
    <trip id="start2Toend2_51" type="connected" color="1,1,0" from="start2" to="end2" depart="4441.831788" />
    <trip id="start1Toend2_48" type="connected" color="1,1,0" from="start1" to="end2" depart="4490.848489" />
    <trip id="start2Toend2_52" type="connected" color="1,1,0" from="start2" to="end2" depart="4513.248817" />
    <trip id="start1Toend1_49" type="connected" color="1,1,0" from="start1" to="end1" depart="4559.075934" />
    <trip id="start2Toend1_46" type="connected" color="1,1,0" from="start2" to="end1" depart="4589.101870" />
    <trip id="start2Toend2_53" type="connected" color="1,1,0" from="start2" to="end2" depart="4596.342651" />
    <trip id="start2Toend1_47" type="connected" color="1,1,0" from="start2" to="end1" depart="4603.603849" />
    <trip id="start1Toend1_50" type="connected" color="1,1,0" from="start1" to="end1" depart="4627.787930" />
    <trip id="start2Toend2_54" type="connected" color="1,1,0" from="start2" to="end2" depart="4644.640900" />
    <trip id="start1Toend2_49" type="connected" color="1,1,0" from="start1" to="end2" depart="4653.094515" />
    <trip id="start2Toend1_48" type="connected" color="1,1,0" from="start2" to="end1" depart="4700.680191" />
    <trip id="start2Toend2_55" type="connected" color="1,1,0" from="start2" to="end2" depart="4708.655603" />
    <trip id="start1Toend1_51" type="connected" color="1,1,0" from="start1" to="end1" depart="4716.185852" />
    <trip id="start1Toend2_50" type="connected" color="1,1,0" from="start1" to="end2" depart="4716.338497" />
    <trip id="start1Toend1_52" type="connected" color="1,1,0" from="start1" to="end1" depart="4717.307740" />
    <trip id="start1Toend2_51" type="connected" color="1,1,0" from="start1" to="end2" depart="4723.205959" />
    <trip id="start1Toend2_52" type="connected" color="1,1,0" from="start1" to="end2" depart="4778.569764" />
    <trip id="start2Toend2_56" type="connected" color="1,1,0" from="start2" to="end2" depart="4807.147771" />
    <trip id="start2Toend1_49" type="connected" color="1,1,0" from="start2" to="end1" depart="4815.644664" />
    <trip id="start2Toend2_57" type="connected" color="1,1,0" from="start2" to="end2" depart="4839.726909" />
    <trip id="start1Toend2_53" type="connected" color="1,1,0" from="start1" to="end2" depart="4851.851223" />
    <trip id="start2Toend2_58" type="connected" color="1,1,0" from="start2" to="end2" depart="4856.083353" />
    <trip id="start1Toend1_53" type="connected" color="1,1,0" from="start1" to="end1" depart="4874.329103" />
    <trip id="start2Toend1_50" type="connected" color="1,1,0" from="start2" to="end1" depart="4894.051588" />
    <trip id="start1Toend2_54" type="connected" color="1,1,0" from="start1" to="end2" depart="4917.906874" />
    <trip id="start2Toend2_59" type="connected" color="1,1,0" from="start2" to="end2" depart="4965.223935" />
    <trip id="start2Toend2_60" type="connected" color="1,1,0" from="start2" to="end2" depart="5011.816073" />
    <trip id="start2Toend2_61" type="connected" color="1,1,0" from="start2" to="end2" depart="5013.338195" />
    <trip id="start2Toend1_51" type="connected" color="1,1,0" from="start2" to="end1" depart="5015.079911" />
    <trip id="start2Toend1_52" type="connected" color="1,1,0" from="start2" to="end1" depart="5026.773295" />
    <trip id="start2Toend1_53" type="connected" color="1,1,0" from="start2" to="end1" depart="5033.576939" />
    <trip id="start1Toend2_55" type="connected" color="1,1,0" from="start1" to="end2" depart="5041.426615" />
    <trip id="start1Toend2_56" type="connected" color="1,1,0" from="start1" to="end2" depart="5047.912037" />
    <trip id="start2Toend2_62" type="connected" color="1,1,0" from="start2" to="end2" depart="5114.605288" />
    <trip id="start2Toend1_54" type="connected" color="1,1,0" from="start2" to="end1" depart="5116.305926" />
    <trip id="start1Toend1_54" type="connected" color="1,1,0" from="start1" to="end1" depart="5136.670058" />
    <trip id="start2Toend2_63" type="connected" color="1,1,0" from="start2" to="end2" depart="5167.156826" />
    <trip id="start1Toend2_57" type="connected" color="1,1,0" from="start1" to="end2" depart="5167.219040" />
    <trip id="start2Toend2_64" type="connected" color="1,1,0" from="start2" to="end2" depart="5193.194022" />
    <trip id="start2Toend2_65" type="connected" color="1,1,0" from="start2" to="end2" depart="5213.134617" />
    <trip id="start2Toend1_55" type="connected" color="1,1,0" from="start2" to="end1" depart="5217.546143" />
    <trip id="start1Toend1_55" type="connected" color="1,1,0" from="start1" to="end1" depart="5234.356125" />
    <trip id="start2Toend2_66" type="connected" color="1,1,0" from="start2" to="end2" depart="5235.743944" />
    <trip id="start2Toend1_56" type="connected" color="1,1,0" from="start2" to="end1" depart="5245.756171" />
    <trip id="start1Toend2_58" type="connected" color="1,1,0" from="start1" to="end2" depart="5262.481957" />
    <trip id="start1Toend2_59" type="connected" color="1,1,0" from="start1" to="end2" depart="5271.767006" />
    <trip id="start2Toend1_57" type="connected" color="1,1,0" from="start2" to="end1" depart="5306.619527" />
    <trip id="start2Toend1_58" type="connected" color="1,1,0" from="start2" to="end1" depart="5312.532765" />
    <trip id="start1Toend2_60" type="connected" color="1,1,0" from="start1" to="end2" depart="5341.483602" />
    <trip id="start1Toend2_61" type="connected" color="1,1,0" from="start1" to="end2" depart="5365.205927" />
    <trip id="start1Toend2_62" type="connected" color="1,1,0" from="start1" to="end2" depart="5392.488638" />
    <trip id="start1Toend1_56" type="connected" color="1,1,0" from="start1" to="end1" depart="5401.809357" />
    <trip id="start2Toend2_67" type="connected" color="1,1,0" from="start2" to="end2" depart="5405.726956" />
    <trip id="start2Toend2_68" type="connected" color="1,1,0" from="start2" to="end2" depart="5425.917944" />
    <trip id="start2Toend1_59" type="connected" color="1,1,0" from="start2" to="end1" depart="5445.472165" />
    <trip id="start2Toend1_60" type="connected" color="1,1,0" from="start2" to="end1" depart="5468.903959" />
    <trip id="start1Toend1_57" type="connected" color="1,1,0" from="start1" to="end1" depart="5473.627120" />
    <trip id="start1Toend2_63" type="connected" color="1,1,0" from="start1" to="end2" depart="5475.894668" />
    <trip id="start2Toend1_61" type="connected" color="1,1,0" from="start2" to="end1" depart="5489.701325" />
    <trip id="start2Toend2_69" type="connected" color="1,1,0" from="start2" to="end2" depart="5507.629687" />
    <trip id="start1Toend2_64" type="connected" color="1,1,0" from="start1" to="end2" depart="5551.702436" />
    <trip id="start1Toend2_65" type="connected" color="1,1,0" from="start1" to="end2" depart="5556.541260" />
    <trip id="start2Toend2_70" type="connected" color="1,1,0" from="start2" to="end2" depart="5571.592329" />
    <trip id="start2Toend1_62" type="connected" color="1,1,0" from="start2" to="end1" depart="5579.305489" />
    <trip id="start1Toend1_58" type="connected" color="1,1,0" from="start1" to="end1" depart="5599.855781" />
    <trip id="start2Toend2_71" type="connected" color="1,1,0" from="start2" to="end2" depart="5612.115421" />
    <trip id="start1Toend2_66" type="connected" color="1,1,0" from="start1" to="end2" depart="5631.052680" />