<?xml version="1.0" encoding="UTF-8"?>

<routes>

	<route id="route0" edges="start1 end1" />
    <route id="route1" edges="start1 end2" />
    <route id="route2" edges="start2 end1" />
    <route id="route3" edges="start2 end2" />


    <vType id="conventional" vClass="passenger" sigma="1" maxSpeed="40.0" color="red" accel="10.0"/>
    <vType id="connected" vClass="passenger" tau="1.3" maxSpeed="28.00" lcCooperative="0.0" color="1,1,0" lcStrategic="1.0" accel="3.0" decel="1.5" emergencyDecel="4.5" lcSpeedGain="0.3" sigma="0.0" lcKeepRight="0.3"/>
    <vType id="connected_pCatchupFollower" vClass="passenger" emergencyDecel="4.5" length="5" tau="0.1" maxSpeed="28.00" color="1,1,0" accel="10.3" decel="1.7" sigma="0.0" minGap="2.0"/>
    <vType id="connected_pCatchup" vClass="passenger" tau="0.1" emergencyDecel="4.5" maxSpeed="28.00" color="0,0.8,0.3" accel="10.3" decel="1.7" sigma="0.0" minGap="2.0"/>
    <vType id="connected_pFollower" vClass="passenger" tau="0.1" maxSpeed="28.00" color="1,1,0" accel="10.3" decel="1.7" sigma="0.0"  minGap="2.0" emergencyDecel="4.5"/>
    <vType id="connected_pLeader" vClass="passenger" length="5" tau="1.3" maxSpeed="28.00" lcCooperative="0.0" color="1,1,0" lcStrategic="1.0" accel="2.0" decel="1.5" emergencyDecel="4.5" lcSpeedGain="0.3" sigma="0.0" lcKeepRight="0.3"/>
    


	
    <trip id="start1Toend1_0" type="connected" color="1,1,0" from="start1" to="end1" depart="0.000000" />
    <trip id="start2Toend1_0" type="connected" color="1,1,0" from="start2" to="end1" depart="0.000000" />
    <trip id="start1Toend2_0" type="connected" color="1,1,0" from="start1" to="end2" depart="0.000000" />
    <trip id="start2Toend2_0" type="connected" color="1,1,0" from="start2" to="end2" depart="0.000000" />
    <trip id="start1Toend1_1" type="connected" color="1,1,0" from="start1" to="end1" depart="22.916649" />
    <trip id="start2Toend1_1" type="connected" color="1,1,0" from="start2" to="end1" depart="61.204585" />
    <trip id="start1Toend1_2" type="connected" color="1,1,0" from="start1" to="end1" depart="109.653632" />
    <trip id="start2Toend2_1" type="connected" color="1,1,0" from="start2" to="end2" depart="167.022096" />
    <trip id="start1Toend2_1" type="connected" color="1,1,0" from="start1" to="end2" depart="174.210132" />
    <trip id="start1Toend1_3" type="connected" color="1,1,0" from="start1" to="end1" depart="214.667962" />
    <trip id="start2Toend2_2" type="connected" color="1,1,0" from="start2" to="end2" depart="217.090591" />
    <trip id="start2Toend2_3" type="connected" color="1,1,0" from="start2" to="end2" depart="320.921518" />
    <trip id="start2Toend1_2" type="connected" color="1,1,0" from="start2" to="end1" depart="355.346655" />
    <trip id="start1Toend2_2" type="connected" color="1,1,0" from="start1" to="end2" depart="377.386989" />
    <trip id="start2Toend1_3" type="connected" color="1,1,0" from="start2" to="end1" depart="485.074627" />
    <trip id="start1Toend2_3" type="connected" color="1,1,0" from="start1" to="end2" depart="508.633996" />
    <trip id="start1Toend2_4" type="connected" color="1,1,0" from="start1" to="end2" depart="571.816551" />
    <trip id="start1Toend1_4" type="connected" color="1,1,0" from="start1" to="end1" depart="573.707421" />
    <trip id="start2Toend2_4" type="connected" color="1,1,0" from="start2" to="end2" depart="581.955967" />
    <trip id="start2Toend2_5" type="connected" color="1,1,0" from="start2" to="end2" depart="638.373545" />
    <trip id="start1Toend2_5" type="connected" color="1,1,0" from="start1" to="end2" depart="661.632743" />
    <trip id="start1Toend2_6" type="connected" color="1,1,0" from="start1" to="end2" depart="681.480632" />
    <trip id="start2Toend2_6" type="connected" color="1,1,0" from="start2" to="end2" depart="716.200614" />
    <trip id="start2Toend1_4" type="connected" color="1,1,0" from="start2" to="end1" depart="736.478317" />
    <trip id="start1Toend1_5" type="connected" color="1,1,0" from="start1" to="end1" depart="757.406880" />
    <trip id="start1Toend2_7" type="connected" color="1,1,0" from="start1" to="end2" depart="761.269486" />
    <trip id="start2Toend2_7" type="connected" color="1,1,0" from="start2" to="end2" depart="820.893301" />
    <trip id="start2Toend1_5" type="connected" color="1,1,0" from="start2" to="end1" depart="996.043608" />
    <trip id="start2Toend1_6" type="connected" color="1,1,0" from="start2" to="end1" depart="999.501126" />
    <trip id="start1Toend2_8" type="connected" color="1,1,0" from="start1" to="end2" depart="1020.906596" />
    <trip id="start2Toend1_7" type="connected" color="1,1,0" from="start2" to="end1" depart="1056.863817" />
    <trip id="start1Toend2_9" type="connected" color="1,1,0" from="start1" to="end2" depart="1112.831239" />
    <trip id="start2Toend2_8" type="connected" color="1,1,0" from="start2" to="end2" depart="1129.390397" />
    <trip id="start2Toend1_8" type="connected" color="1,1,0" from="start2" to="end1" depart="1156.595256" />
    <trip id="start1Toend1_6" type="connected" color="1,1,0" from="start1" to="end1" depart="1158.210578" />
    <trip id="start2Toend2_9" type="connected" color="1,1,0" from="start2" to="end2" depart="1165.948607" />
    <trip id="start1Toend1_7" type="connected" color="1,1,0" from="start1" to="end1" depart="1211.641192" />
    <trip id="start2Toend1_9" type="connected" color="1,1,0" from="start2" to="end1" depart="1268.185677" />
    <trip id="start1Toend1_8" type="connected" color="1,1,0" from="start1" to="end1" depart="1274.048595" />
    <trip id="start2Toend2_10" type="connected" color="1,1,0" from="start2" to="end2" depart="1295.413432" />
    <trip id="start2Toend2_11" type="connected" color="1,1,0" from="start2" to="end2" depart="1311.640347" />
    <trip id="start2Toend2_12" type="connected" color="1,1,0" from="start2" to="end2" depart="1323.578315" />
    <trip id="start2Toend2_13" type="connected" color="1,1,0" from="start2" to="end2" depart="1413.709612" />
    <trip id="start1Toend2_10" type="connected" color="1,1,0" from="start1" to="end2" depart="1437.333771" />
    <trip id="start1Toend1_9" type="connected" color="1,1,0" from="start1" to="end1" depart="1455.159645" />
    <trip id="start2Toend1_10" type="connected" color="1,1,0" from="start2" to="end1" depart="1510.534990" />
    <trip id="start2Toend1_11" type="connected" color="1,1,0" from="start2" to="end1" depart="1539.655584" />
    <trip id="start1Toend1_10" type="connected" color="1,1,0" from="start1" to="end1" depart="1558.208547" />
    <trip id="start2Toend2_14" type="connected" color="1,1,0" from="start2" to="end2" depart="1566.920150" />
    <trip id="start2Toend2_15" type="connected" color="1,1,0" from="start2" to="end2" depart="1602.559236" />
    <trip id="start1Toend2_11" type="connected" color="1,1,0" from="start1" to="end2" depart="1611.397472" />
    <trip id="start2Toend1_12" type="connected" color="1,1,0" from="start2" to="end1" depart="1651.318553" />
    <trip id="start1Toend2_12" type="connected" color="1,1,0" from="start1" to="end2" depart="1815.978092" />
    <trip id="start2Toend1_13" type="connected" color="1,1,0" from="start2" to="end1" depart="1838.809510" />
    <trip id="start1Toend1_11" type="connected" color="1,1,0" from="start1" to="end1" depart="1912.271774" />
    <trip id="start2Toend1_14" type="connected" color="1,1,0" from="start2" to="end1" depart="1918.565545" />
    <trip id="start1Toend1_12" type="connected" color="1,1,0" from="start1" to="end1" depart="1999.746851" />
    <trip id="start1Toend2_13" type="connected" color="1,1,0" from="start1" to="end2" depart="2010.590480" />
    <trip id="start1Toend1_13" type="connected" color="1,1,0" from="start1" to="end1" depart="2037.450596" />
    <trip id="start2Toend2_16" type="connected" color="1,1,0" from="start2" to="end2" depart="2065.714188" />
    <trip id="start1Toend1_14" type="connected" color="1,1,0" from="start1" to="end1" depart="2113.932799" />
    <trip id="start1Toend2_14" type="connected" color="1,1,0" from="start1" to="end2" depart="2153.748958" />
    <trip id="start1Toend1_15" type="connected" color="1,1,0" from="start1" to="end1" depart="2195.521219" />
    <trip id="start2Toend2_17" type="connected" color="1,1,0" from="start2" to="end2" depart="2205.569081" />
    <trip id="start2Toend1_15" type="connected" color="1,1,0" from="start2" to="end1" depart="2255.991329" />
    <trip id="start1Toend2_15" type="connected" color="1,1,0" from="start1" to="end2" depart="2257.875315" />
    <trip id="start1Toend1_16" type="connected" color="1,1,0" from="start1" to="end1" depart="2259.039751" />
    <trip id="start2Toend1_16" type="connected" color="1,1,0" from="start2" to="end1" depart="2265.453319" />
    <trip id="start2Toend1_17" type="connected" color="1,1,0" from="start2" to="end1" depart="2360.955633" />
    <trip id="start1Toend1_17" type="connected" color="1,1,0" from="start1" to="end1" depart="2365.316180" />
    <trip id="start1Toend2_16" type="connected" color="1,1,0" from="start1" to="end2" depart="2400.013426" />
    <trip id="start2Toend1_18" type="connected" color="1,1,0" from="start2" to="end1" depart="2428.888122" />
    <trip id="start1Toend1_18" type="connected" color="1,1,0" from="start1" to="end1" depart="2429.536115" />
    <trip id="start1Toend1_19" type="connected" color="1,1,0" from="start1" to="end1" depart="2430.453649" />
    <trip id="start2Toend1_19" type="connected" color="1,1,0" from="start2" to="end1" depart="2463.468429" />
    <trip id="start2Toend1_20" type="connected" color="1,1,0" from="start2" to="end1" depart="2466.274370" />
    <trip id="start2Toend1_21" type="connected" color="1,1,0" from="start2" to="end1" depart="2468.570676" />
    <trip id="start1Toend1_20" type="connected" color="1,1,0" from="start1" to="end1" depart="2496.968000" />
    <trip id="start1Toend2_17" type="connected" color="1,1,0" from="start1" to="end2" depart="2555.641385" />
    <trip id="start2Toend2_18" type="connected" color="1,1,0" from="start2" to="end2" depart="2571.004212" />
    <trip id="start2Toend2_19" type="connected" color="1,1,0" from="start2" to="end2" depart="2580.249427" />
    <trip id="start2Toend2_20" type="connected" color="1,1,0" from="start2" to="end2" depart="2621.320578" />
    <trip id="start1Toend1_21" type="connected" color="1,1,0" from="start1" to="end1" depart="2631.502092" />
    <trip id="start2Toend1_22" type="connected" color="1,1,0" from="start2" to="end1" depart="2645.026065" />
    <trip id="start1Toend1_22" type="connected" color="1,1,0" from="start1" to="end1" depart="2706.792355" />
    <trip id="start2Toend2_21" type="connected" color="1,1,0" from="start2" to="end2" depart="2710.501039" />
    <trip id="start2Toend2_22" type="connected" color="1,1,0" from="start2" to="end2" depart="2716.478083" />
    <trip id="start2Toend2_23" type="connected" color="1,1,0" from="start2" to="end2" depart="2734.923101" />
    <trip id="start1Toend1_23" type="connected" color="1,1,0" from="start1" to="end1" depart="2743.284766" />
    <trip id="start2Toend2_24" type="connected" color="1,1,0" from="start2" to="end2" depart="2749.365297" />
    <trip id="start2Toend1_23" type="connected" color="1,1,0" from="start2" to="end1" depart="2765.261642" />
    <trip id="start2Toend1_24" type="connected" color="1,1,0" from="start2" to="end1" depart="2796.645906" />
    <trip id="start1Toend2_18" type="connected" color="1,1,0" from="start1" to="end2" depart="2870.181657" />
    <trip id="start1Toend2_19" type="connected" color="1,1,0" from="start1" to="end2" depart="2905.973858" />
    <trip id="start1Toend1_24" type="connected" color="1,1,0" from="start1" to="end1" depart="2913.258180" />
    <trip id="start1Toend1_25" type="connected" color="1,1,0" from="start1" to="end1" depart="2936.080228" />
    <trip id="start1Toend2_20" type="connected" color="1,1,0" from="start1" to="end2" depart="2946.243129" />
    <trip id="start1Toend1_26" type="connected" color="1,1,0" from="start1" to="end1" depart="2958.740500" />
    <trip id="start2Toend2_25" type="connected" color="1,1,0" from="start2" to="end2" depart="3019.066965" />
    <trip id="start2Toend2_26" type="connected" color="1,1,0" from="start2" to="end2" depart="3033.208773" />
    <trip id="start2Toend1_25" type="connected" color="1,1,0" from="start2" to="end1" depart="3033.236090" />
    <trip id="start2Toend1_26" type="connected" color="1,1,0" from="start2" to="end1" depart="3039.338154" />
    <trip id="start2Toend1_27" type="connected" color="1,1,0" from="start2" to="end1" depart="3052.938009" />
    <trip id="start2Toend2_27" type="connected" color="1,1,0" from="start2" to="end2" depart="3084.322968" />
    <trip id="start1Toend1_27" type="connected" color="1,1,0" from="start1" to="end1" depart="3093.498063" />
    <trip id="start2Toend2_28" type="connected" color="1,1,0" from="start2" to="end2" depart="3128.370851" />
    <trip id="start2Toend2_29" type="connected" color="1,1,0" from="start2" to="end2" depart="3143.056698" />
    <trip id="start1Toend2_21" type="connected" color="1,1,0" from="start1" to="end2" depart="3198.202803" />
    <trip id="start2Toend1_28" type="connected" color="1,1,0" from="start2" to="end1" depart="3209.467796" />
    <trip id="start2Toend1_29" type="connected" color="1,1,0" from="start2" to="end1" depart="3267.902205" />
    <trip id="start1Toend2_22" type="connected" color="1,1,0" from="start1" to="end2" depart="3275.184880" />
    <trip id="start2Toend2_30" type="connected" color="1,1,0" from="start2" to="end2" depart="3284.217275" />
    <trip id="start2Toend2_31" type="connected" color="1,1,0" from="start2" to="end2" depart="3294.438141" />
    <trip id="start2Toend2_32" type="connected" color="1,1,0" from="start2" to="end2" depart="3300.377957" />
    <trip id="start2Toend2_33" type="connected" color="1,1,0" from="start2" to="end2" depart="3311.173485" />
    <trip id="start2Toend2_34" type="connected" color="1,1,0" from="start2" to="end2" depart="3315.486166" />
    <trip id="start2Toend1_30" type="connected" color="1,1,0" from="start2" to="end1" depart="3357.671716" />
    <trip id="start2Toend1_31" type="connected" color="1,1,0" from="start2" to="end1" depart="3462.705539" />
    <trip id="start1Toend1_28" type="connected" color="1,1,0" from="start1" to="end1" depart="3478.103193" />
    <trip id="start1Toend2_23" type="connected" color="1,1,0" from="start1" to="end2" depart="3497.016414" />
    <trip id="start1Toend2_24" type="connected" color="1,1,0" from="start1" to="end2" depart="3505.747736" />
    <trip id="start1Toend2_25" type="connected" color="1,1,0" from="start1" to="end2" depart="3514.705857" />
    <trip id="start1Toend1_29" type="connected" color="1,1,0" from="start1" to="end1" depart="3536.587877" />
    <trip id="start2Toend2_35" type="connected" color="1,1,0" from="start2" to="end2" depart="3536.624948" />
    <trip id="start2Toend1_32" type="connected" color="1,1,0" from="start2" to="end1" depart="3554.717429" />
    <trip id="start2Toend1_33" type="connected" color="1,1,0" from="start2" to="end1" depart="3582.783953" />
    <trip id="start2Toend1_34" type="connected" color="1,1,0" from="start2" to="end1" depart="3610.620775" />
    <trip id="start2Toend2_36" type="connected" color="1,1,0" from="start2" to="end2" depart="3619.636660" />
    <trip id="start1Toend1_30" type="connected" color="1,1,0" from="start1" to="end1" depart="3622.471872" />
    <trip id="start2Toend2_37" type="connected" color="1,1,0" from="start2" to="end2" depart="3643.227841" />
    <trip id="start2Toend1_35" type="connected" color="1,1,0" from="start2" to="end1" depart="3662.690650" />
    <trip id="start2Toend2_38" type="connected" color="1,1,0" from="start2" to="end2" depart="3667.318634" />
    <trip id="start2Toend2_39" type="connected" color="1,1,0" from="start2" to="end2" depart="3670.760694" />
    <trip id="start2Toend2_40" type="connected" color="1,1,0" from="start2" to="end2" depart="3684.621529" />
    <trip id="start1Toend2_26" type="connected" color="1,1,0" from="start1" to="end2" depart="3695.946320" />
    <trip id="start2Toend1_36" type="connected" color="1,1,0" from="start2" to="end1" depart="3765.407025" />
    <trip id="start1Toend2_27" type="connected" color="1,1,0" from="start1" to="end2" depart="3828.695424" />
    <trip id="start2Toend1_37" type="connected" color="1,1,0" from="start2" to="end1" depart="3839.788213" />
    <trip id="start1Toend1_31" type="connected" color="1,1,0" from="start1" to="end1" depart="3841.385676" />
    <trip id="start1Toend1_32" type="connected" color="1,1,0" from="start1" to="end1" depart="3842.978810" />
    <trip id="start1Toend1_33" type="connected" color="1,1,0" from="start1" to="end1" depart="3849.877641" />
    <trip id="start1Toend2_28" type="connected" color="1,1,0" from="start1" to="end2" depart="3856.078040" />
    <trip id="start1Toend2_29" type="connected" color="1,1,0" from="start1" to="end2" depart="3890.059196" />
    <trip id="start1Toend2_30" type="connected" color="1,1,0" from="start1" to="end2" depart="3892.917457" />
    <trip id="start1Toend1_34" type="connected" color="1,1,0" from="start1" to="end1" depart="3911.370452" />
    <trip id="start1Toend2_31" type="connected" color="1,1,0" from="start1" to="end2" depart="3934.811923" />
    <trip id="start1Toend1_35" type="connected" color="1,1,0" from="start1" to="end1" depart="3937.092749" />
    <trip id="start1Toend2_32" type="connected" color="1,1,0" from="start1" to="end2" depart="3945.647081" />
    <trip id="start1Toend1_36" type="connected" color="1,1,0" from="start1" to="end1" depart="3953.247246" />
    <trip id="start1Toend1_37" type="connected" color="1,1,0" from="start1" to="end1" depart="4006.083837" />
    <trip id="start1Toend2_33" type="connected" color="1,1,0" from="start1" to="end2" depart="4010.835304" />
    <trip id="start2Toend1_38" type="connected" color="1,1,0" from="start2" to="end1" depart="4030.811199" />
    <trip id="start2Toend2_41" type="connected" color="1,1,0" from="start2" to="end2" depart="4036.389219" />
    <trip id="start1Toend2_34" type="connected" color="1,1,0" from="start1" to="end2" depart="4048.963969" />
    <trip id="start1Toend1_38" type="connected" color="1,1,0" from="start1" to="end1" depart="4062.292209" />
    <trip id="start2Toend1_39" type="connected" color="1,1,0" from="start2" to="end1" depart="4071.654895" />
    <trip id="start1Toend1_39" type="connected" color="1,1,0" from="start1" to="end1" depart="4078.794216" />
    <trip id="start1Toend1_40" type="connected" color="1,1,0" from="start1" to="end1" depart="4148.803581" />
    <trip id="start2Toend1_40" type="connected" color="1,1,0" from="start2" to="end1" depart="4159.453748" />
    <trip id="start1Toend1_41" type="connected" color="1,1,0" from="start1" to="end1" depart="4192.164796" />
    <trip id="start2Toend1_41" type="connected" color="1,1,0" from="start2" to="end1" depart="4198.465850" />
    <trip id="start2Toend1_42" type="connected" color="1,1,0" from="start2" to="end1" depart="4220.300030" />
    <trip id="start1Toend1_42" type="connected" color="1,1,0" from="start1" to="end1" depart="4229.108553" />
    <trip id="start2Toend1_43" type="connected" color="1,1,0" from="start2" to="end1" depart="4243.643023" />
    <trip id="start2Toend1_44" type="connected" color="1,1,0" from="start2" to="end1" depart="4250.887301" />
    <trip id="start1Toend1_43" type="connected" color="1,1,0" from="start1" to="end1" depart="4258.573368" />
    <trip id="start1Toend1_44" type="connected" color="1,1,0" from="start1" to="end1" depart="4304.521881" />
    <trip id="start1Toend2_35" type="connected" color="1,1,0" from="start1" to="end2" depart="4319.279677" />
    <trip id="start1Toend2_36" type="connected" color="1,1,0" from="start1" to="end2" depart="4346.296621" />
    <trip id="start1Toend1_45" type="connected" color="1,1,0" from="start1" to="end1" depart="4379.738224" />
    <trip id="start1Toend2_37" type="connected" color="1,1,0" from="start1" to="end2" depart="4388.376012" />
    <trip id="start2Toend2_42" type="connected" color="1,1,0" from="start2" to="end2" depart="4390.866528" />
    <trip id="start1Toend2_38" type="connected" color="1,1,0" from="start1" to="end2" depart="4398.380504" />
    <trip id="start1Toend2_39" type="connected" color="1,1,0" from="start1" to="end2" depart="4416.075227" />
    <trip id="start1Toend2_40" type="connected" color="1,1,0" from="start1" to="end2" depart="4420.754486" />
    <trip id="start2Toend2_43" type="connected" color="1,1,0" from="start2" to="end2" depart="4440.706839" />
    <trip id="start1Toend1_46" type="connected" color="1,1,0" from="start1" to="end1" depart="4442.313287" />
    <trip id="start1Toend1_47" type="connected" color="1,1,0" from="start1" to="end1" depart="4466.351032" />
    <trip id="start1Toend2_41" type="connected" color="1,1,0" from="start1" to="end2" depart="4474.019287" />
    <trip id="start1Toend1_48" type="connected" color="1,1,0" from="start1" to="end1" depart="4511.418063" />
    <trip id="start2Toend1_45" type="connected" color="1,1,0" from="start2" to="end1" depart="4581.011774" />
    <trip id="start1Toend1_49" type="connected" color="1,1,0" from="start1" to="end1" depart="4602.260938" />
    <trip id="start1Toend2_42" type="connected" color="1,1,0" from="start1" to="end2" depart="4622.712390" />
    <trip id="start2Toend1_46" type="connected" color="1,1,0" from="start2" to="end1" depart="4638.314007" />
    <trip id="start1Toend2_43" type="connected" color="1,1,0" from="start1" to="end2" depart="4643.557655" />
    <trip id="start1Toend1_50" type="connected" color="1,1,0" from="start1" to="end1" depart="4647.154679" />
    <trip id="start1Toend1_51" type="connected" color="1,1,0" from="start1" to="end1" depart="4660.144984" />
    <trip id="start1Toend2_44" type="connected" color="1,1,0" from="start1" to="end2" depart="4664.563777" />
    <trip id="start2Toend1_47" type="connected" color="1,1,0" from="start2" to="end1" depart="4665.131461" />
    <trip id="start1Toend1_52" type="connected" color="1,1,0" from="start1" to="end1" depart="4698.430861" />
    <trip id="start1Toend1_53" type="connected" color="1,1,0" from="start1" to="end1" depart="4716.678235" />
    <trip id="start2Toend2_44" type="connected" color="1,1,0" from="start2" to="end2" depart="4719.051614" />
    <trip id="start2Toend1_48" type="connected" color="1,1,0" from="start2" to="end1" depart="4726.789197" />
    <trip id="start1Toend2_45" type="connected" color="1,1,0" from="start1" to="end2" depart="4727.238398" />
    <trip id="start2Toend1_49" type="connected" color="1,1,0" from="start2" to="end1" depart="4731.138315" />
    <trip id="start2Toend2_45" type="connected" color="1,1,0" from="start2" to="end2" depart="4734.845090" />
    <trip id="start2Toend2_46" type="connected" color="1,1,0" from="start2" to="end2" depart="4739.308928" />
    <trip id="start1Toend2_46" type="connected" color="1,1,0" from="start1" to="end2" depart="4749.595075" />
    <trip id="start2Toend1_50" type="connected" color="1,1,0" from="start2" to="end1" depart="4762.282059" />
    <trip id="start2Toend2_47" type="connected" color="1,1,0" from="start2" to="end2" depart="4800.564898" />
    <trip id="start1Toend2_47" type="connected" color="1,1,0" from="start1" to="end2" depart="4824.795625" />
    <trip id="start1Toend2_48" type="connected" color="1,1,0" from="start1" to="end2" depart="4854.446908" />
    <trip id="start2Toend2_48" type="connected" color="1,1,0" from="start2" to="end2" depart="4868.063095" />
    <trip id="start1Toend1_54" type="connected" color="1,1,0" from="start1" to="end1" depart="4878.819273" />
    <trip id="start2Toend1_51" type="connected" color="1,1,0" from="start2" to="end1" depart="4944.911435" />
    <trip id="start2Toend2_49" type="connected" color="1,1,0" from="start2" to="end2" depart="4968.169539" />
    <trip id="start1Toend1_55" type="connected" color="1,1,0" from="start1" to="end1" depart="4969.697418" />
    <trip id="start2Toend1_52" type="connected" color="1,1,0" from="start2" to="end1" depart="4985.328558" />
    <trip id="start2Toend1_53" type="connected" color="1,1,0" from="start2" to="end1" depart="4994.384923" />
    <trip id="start1Toend2_49" type="connected" color="1,1,0" from="start1" to="end2" depart="4994.747780" />
    <trip id="start1Toend2_50" type="connected" color="1,1,0" from="start1" to="end2" depart="5010.747037" />
    <trip id="start1Toend1_56" type="connected" color="1,1,0" from="start1" to="end1" depart="5016.297973" />
    <trip id="start2Toend1_54" type="connected" color="1,1,0" from="start2" to="end1" depart="5037.062028" />
    <trip id="start2Toend2_50" type="connected" color="1,1,0" from="start2" to="end2" depart="5043.529434" />
    <trip id="start2Toend1_55" type="connected" color="1,1,0" from="start2" to="end1" depart="5048.639320" />
    <trip id="start1Toend1_57" type="connected" color="1,1,0" from="start1" to="end1" depart="5060.760861" />
    <trip id="start1Toend2_51" type="connected" color="1,1,0" from="start1" to="end2" depart="5132.772388" />
    <trip id="start1Toend1_58" type="connected" color="1,1,0" from="start1" to="end1" depart="5172.464690" />
    <trip id="start1Toend1_59" type="connected" color="1,1,0" from="start1" to="end1" depart="5196.394744" />
    <trip id="start1Toend2_52" type="connected" color="1,1,0" from="start1" to="end2" depart="5207.800822" />
    <trip id="start1Toend2_53" type="connected" color="1,1,0" from="start1" to="end2" depart="5213.260222" />
    <trip id="start2Toend1_56" type="connected" color="1,1,0" from="start2" to="end1" depart="5218.001139" />
    <trip id="start1Toend2_54" type="connected" color="1,1,0" from="start1" to="end2" depart="5239.455414" />
    <trip id="start2Toend2_51" type="connected" color="1,1,0" from="start2" to="end2" depart="5334.501995" />
    <trip id="start1Toend2_55" type="connected" color="1,1,0" from="start1" to="end2" depart="5338.747614" />
    <trip id="start1Toend1_60" type="connected" color="1,1,0" from="start1" to="end1" depart="5356.199429" />
    <trip id="start1Toend2_56" type="connected" color="1,1,0" from="start1" to="end2" depart="5391.291722" />
    <trip id="start2Toend2_52" type="connected" color="1,1,0" from="start2" to="end2" depart="5446.964037" />
    <trip id="start1Toend1_61" type="connected" color="1,1,0" from="start1" to="end1" depart="5490.357274" />
    <trip id="start2Toend2_53" type="connected" color="1,1,0" from="start2" to="end2" depart="5496.466099" />
    <trip id="start1Toend2_57" type="connected" color="1,1,0" from="start1" to="end2" depart="5499.979406" />
    <trip id="start1Toend2_58" type="connected" color="1,1,0" from="start1" to="end2" depart="5504.575176" />
    <trip id="start1Toend2_59" type="connected" color="1,1,0" from="start1" to="end2" depart="5511.786405" />
    <trip id="start2Toend2_54" type="connected" color="1,1,0" from="start2" to="end2" depart="5532.410515" />
    <trip id="start1Toend1_62" type="connected" color="1,1,0" from="start1" to="end1" depart="5544.554012" />
    <trip id="start1Toend1_63" type="connected" color="1,1,0" from="start1" to="end1" depart="5550.603008" />
    <trip id="start2Toend2_55" type="connected" color="1,1,0" from="start2" to="end2" depart="5560.995690" />
    <trip id="start1Toend2_60" type="connected" color="1,1,0" from="start1" to="end2" depart="5569.186811" />
    <trip id="start2Toend1_57" type="connected" color="1,1,0" from="start2" to="end1" depart="5576.432027" />
    <trip id="start1Toend1_64" type="connected" color="1,1,0" from="start1" to="end1" depart="5578.493170" />
    <trip id="start2Toend2_56" type="connected" color="1,1,0" from="start2" to="end2" depart="5588.886898" />
    <trip id="start1Toend1_65" type="connected" color="1,1,0" from="start1" to="end1" depart="5603.006996" />
    <trip id="start2Toend2_57" type="connected" color="1,1,0" from="start2" to="end2" depart="5626.840045" />
    <trip id="start2Toend1_58" type="connected" color="1,1,0" from="start2" to="end1" depart="5633.565892" />
    <trip id="start2Toend2_58" type="connected" color="1,1,0" from="start2" to="end2" depart="5640.622903" />
    <trip id="start2Toend2_59" type="connected" color="1,1,0" from="start2" to="end2" depart="5677.354298" />
    <trip id="start2Toend1_59" type="connected" color="1,1,0" from="start2" to="end1" depart="5683.338756" />
    <trip id="start2Toend1_60" type="connected" color="1,1,0" from="start2" to="end1" depart="5732.605708" />
    <trip id="start1Toend2_61" type="connected" color="1,1,0" from="start1" to="end2" depart="5753.099519" />
    <trip id="start2Toend2_60" type="connected" color="1,1,0" from="start2" to="end2" depart="5755.278441" />
    <trip id="start2Toend2_61" type="connected" color="1,1,0" from="start2" to="end2" depart="5778.952373" />
    <trip id="start1Toend2_62" type="connected" color="1,1,0" from="start1" to="end2" depart="5783.750060" />
    <trip id="start1Toend2_63" type="connected" color="1,1,0" from="start1" to="end2" depart="5797.434230" />
    <trip id="start1Toend2_64" type="connected" color="1,1,0" from="start1" to="end2" depart="5813.246439" />
    <trip id="start2Toend2_62" type="connected" color="1,1,0" from="start2" to="end2" depart="5814.711592" />
    <trip id="start2Toend1_61" type="connected" color="1,1,0" from="start2" to="end1" depart="5819.946724" />
    <trip id="start1Toend2_65" type="connected" color="1,1,0" from="start1" to="end2" depart="5840.893213" />
    <trip id="start1Toend2_66" type="connected" color="1,1,0" from="start1" to="end2" depart="5867.041573" />
    <trip id="start1Toend1_66" type="connected" color="1,1,0" from="start1" to="end1" depart="5883.460959" />
    <trip id="start2Toend1_62" type="connected" color="1,1,0" from="start2" to="end1" depart="5933.613572" />
    <trip id="start1Toend2_67" type="connected" color="1,1,0" from="start1" to="end2" depart="5967.474185" />