<?xml version="1.0" encoding="UTF-8"?>

<routes>

	<route id="route0" edges="start1 end1" />
    <route id="route1" edges="start1 end2" />
    <route id="route2" edges="start2 end1" />
    <route id="route3" edges="start2 end2" />


    <vType id="conventional" vClass="passenger" sigma="1" maxSpeed="40.0" color="red" accel="10.0"/>
    <vType id="connected" vClass="passenger" tau="1.3" maxSpeed="28.00" lcCooperative="0.0" color="1,1,0" lcStrategic="1.0" accel="3.0" decel="1.5" emergencyDecel="4.5" lcSpeedGain="0.3" sigma="0.0" lcKeepRight="0.3"/>
    <vType id="connected_pCatchupFollower" vClass="passenger" emergencyDecel="4.5" length="5" tau="0.1" maxSpeed="28.00" color="1,1,0" accel="10.3" decel="1.7" sigma="0.0" minGap="2.0"/>
    <vType id="connected_pCatchup" vClass="passenger" tau="0.1" emergencyDecel="4.5" maxSpeed="28.00" color="0,0.8,0.3" accel="10.3" decel="1.7" sigma="0.0" minGap="2.0"/>
    <vType id="connected_pFollower" vClass="passenger" tau="0.1" maxSpeed="28.00" color="1,1,0" accel="10.3" decel="1.7" sigma="0.0"  minGap="2.0" emergencyDecel="4.5"/>
    <vType id="connected_pLeader" vClass="passenger" length="5" tau="1.3" maxSpeed="28.00" lcCooperative="0.0" color="1,1,0" lcStrategic="1.0" accel="2.0" decel="1.5" emergencyDecel="4.5" lcSpeedGain="0.3" sigma="0.0" lcKeepRight="0.3"/>
    


	
    <trip id="start1Toend1_0" type="connected" color="1,1,0" from="start1" to="end1" depart="0.000000" />
    <trip id="start2Toend1_0" type="connected" color="1,1,0" from="start2" to="end1" depart="0.000000" />
    <trip id="start1Toend2_0" type="connected" color="1,1,0" from="start1" to="end2" depart="0.000000" />
    <trip id="start2Toend2_0" type="connected" color="1,1,0" from="start2" to="end2" depart="0.000000" />
    <trip id="start2Toend2_1" type="connected" color="1,1,0" from="start2" to="end2" depart="6.717352" />
    <trip id="start2Toend2_2" type="connected" color="1,1,0" from="start2" to="end2" depart="60.253756" />
    <trip id="start2Toend1_1" type="connected" color="1,1,0" from="start2" to="end1" depart="64.193466" />
    <trip id="start1Toend2_1" type="connected" color="1,1,0" from="start1" to="end2" depart="81.645378" />
    <trip id="start2Toend1_2" type="connected" color="1,1,0" from="start2" to="end1" depart="112.122615" />
    <trip id="start1Toend2_2" type="connected" color="1,1,0" from="start1" to="end2" depart="123.914936" />
    <trip id="start1Toend1_1" type="connected" color="1,1,0" from="start1" to="end1" depart="124.841970" />
    <trip id="start1Toend1_2" type="connected" color="1,1,0" from="start1" to="end1" depart="126.316778" />
    <trip id="start2Toend2_3" type="connected" color="1,1,0" from="start2" to="end2" depart="137.684016" />
    <trip id="start2Toend2_4" type="connected" color="1,1,0" from="start2" to="end2" depart="183.542805" />
    <trip id="start1Toend1_3" type="connected" color="1,1,0" from="start1" to="end1" depart="192.590988" />
    <trip id="start1Toend1_4" type="connected" color="1,1,0" from="start1" to="end1" depart="203.987081" />
    <trip id="start1Toend2_3" type="connected" color="1,1,0" from="start1" to="end2" depart="218.709432" />
    <trip id="start1Toend2_4" type="connected" color="1,1,0" from="start1" to="end2" depart="222.902413" />
    <trip id="start1Toend1_5" type="connected" color="1,1,0" from="start1" to="end1" depart="260.271470" />
    <trip id="start1Toend1_6" type="connected" color="1,1,0" from="start1" to="end1" depart="267.040016" />
    <trip id="start2Toend2_5" type="connected" color="1,1,0" from="start2" to="end2" depart="293.731726" />
    <trip id="start2Toend2_6" type="connected" color="1,1,0" from="start2" to="end2" depart="293.854268" />
    <trip id="start1Toend1_7" type="connected" color="1,1,0" from="start1" to="end1" depart="295.830378" />
    <trip id="start2Toend1_3" type="connected" color="1,1,0" from="start2" to="end1" depart="298.248296" />
    <trip id="start2Toend1_4" type="connected" color="1,1,0" from="start2" to="end1" depart="306.741497" />
    <trip id="start2Toend2_7" type="connected" color="1,1,0" from="start2" to="end2" depart="330.224651" />
    <trip id="start2Toend2_8" type="connected" color="1,1,0" from="start2" to="end2" depart="334.851062" />
    <trip id="start2Toend1_5" type="connected" color="1,1,0" from="start2" to="end1" depart="361.411658" />
    <trip id="start2Toend1_6" type="connected" color="1,1,0" from="start2" to="end1" depart="373.774490" />
    <trip id="start1Toend1_8" type="connected" color="1,1,0" from="start1" to="end1" depart="400.096386" />
    <trip id="start2Toend2_9" type="connected" color="1,1,0" from="start2" to="end2" depart="425.972042" />
    <trip id="start1Toend1_9" type="connected" color="1,1,0" from="start1" to="end1" depart="462.515245" />
    <trip id="start1Toend2_5" type="connected" color="1,1,0" from="start1" to="end2" depart="474.483566" />
    <trip id="start2Toend1_7" type="connected" color="1,1,0" from="start2" to="end1" depart="495.347089" />
    <trip id="start2Toend1_8" type="connected" color="1,1,0" from="start2" to="end1" depart="514.527373" />
    <trip id="start2Toend2_10" type="connected" color="1,1,0" from="start2" to="end2" depart="564.869124" />
    <trip id="start1Toend2_6" type="connected" color="1,1,0" from="start1" to="end2" depart="585.227116" />
    <trip id="start2Toend1_9" type="connected" color="1,1,0" from="start2" to="end1" depart="590.546238" />
    <trip id="start2Toend2_11" type="connected" color="1,1,0" from="start2" to="end2" depart="631.444553" />
    <trip id="start1Toend2_7" type="connected" color="1,1,0" from="start1" to="end2" depart="747.937843" />
    <trip id="start2Toend2_12" type="connected" color="1,1,0" from="start2" to="end2" depart="765.950173" />
    <trip id="start2Toend2_13" type="connected" color="1,1,0" from="start2" to="end2" depart="780.328176" />
    <trip id="start1Toend2_8" type="connected" color="1,1,0" from="start1" to="end2" depart="832.503932" />
    <trip id="start1Toend1_10" type="connected" color="1,1,0" from="start1" to="end1" depart="851.124541" />
    <trip id="start2Toend1_10" type="connected" color="1,1,0" from="start2" to="end1" depart="857.475338" />
    <trip id="start2Toend1_11" type="connected" color="1,1,0" from="start2" to="end1" depart="859.156978" />
    <trip id="start2Toend1_12" type="connected" color="1,1,0" from="start2" to="end1" depart="865.753807" />
    <trip id="start1Toend2_9" type="connected" color="1,1,0" from="start1" to="end2" depart="888.282365" />
    <trip id="start1Toend1_11" type="connected" color="1,1,0" from="start1" to="end1" depart="926.302945" />
    <trip id="start2Toend2_14" type="connected" color="1,1,0" from="start2" to="end2" depart="960.604154" />
    <trip id="start1Toend1_12" type="connected" color="1,1,0" from="start1" to="end1" depart="1006.579180" />
    <trip id="start1Toend2_10" type="connected" color="1,1,0" from="start1" to="end2" depart="1012.531596" />
    <trip id="start2Toend1_13" type="connected" color="1,1,0" from="start2" to="end1" depart="1023.249219" />
    <trip id="start1Toend2_11" type="connected" color="1,1,0" from="start1" to="end2" depart="1030.674688" />
    <trip id="start1Toend2_12" type="connected" color="1,1,0" from="start1" to="end2" depart="1051.960118" />
    <trip id="start2Toend2_15" type="connected" color="1,1,0" from="start2" to="end2" depart="1061.387661" />
    <trip id="start2Toend1_14" type="connected" color="1,1,0" from="start2" to="end1" depart="1085.298850" />
    <trip id="start2Toend1_15" type="connected" color="1,1,0" from="start2" to="end1" depart="1134.336666" />
    <trip id="start1Toend1_13" type="connected" color="1,1,0" from="start1" to="end1" depart="1136.169842" />
    <trip id="start2Toend2_16" type="connected" color="1,1,0" from="start2" to="end2" depart="1191.355905" />
    <trip id="start1Toend1_14" type="connected" color="1,1,0" from="start1" to="end1" depart="1192.371594" />
    <trip id="start1Toend1_15" type="connected" color="1,1,0" from="start1" to="end1" depart="1200.148844" />
    <trip id="start2Toend1_16" type="connected" color="1,1,0" from="start2" to="end1" depart="1205.666214" />
    <trip id="start1Toend2_13" type="connected" color="1,1,0" from="start1" to="end2" depart="1205.788418" />
    <trip id="start1Toend2_14" type="connected" color="1,1,0" from="start1" to="end2" depart="1208.612269" />
    <trip id="start2Toend1_17" type="connected" color="1,1,0" from="start2" to="end1" depart="1210.153192" />
    <trip id="start1Toend2_15" type="connected" color="1,1,0" from="start1" to="end2" depart="1211.099007" />
    <trip id="start1Toend1_16" type="connected" color="1,1,0" from="start1" to="end1" depart="1232.763357" />
    <trip id="start2Toend2_17" type="connected" color="1,1,0" from="start2" to="end2" depart="1279.009676" />
    <trip id="start2Toend1_18" type="connected" color="1,1,0" from="start2" to="end1" depart="1292.192790" />
    <trip id="start2Toend1_19" type="connected" color="1,1,0" from="start2" to="end1" depart="1303.522796" />
    <trip id="start1Toend2_16" type="connected" color="1,1,0" from="start1" to="end2" depart="1308.873102" />
    <trip id="start2Toend2_18" type="connected" color="1,1,0" from="start2" to="end2" depart="1325.208430" />
    <trip id="start2Toend2_19" type="connected" color="1,1,0" from="start2" to="end2" depart="1345.971298" />
    <trip id="start1Toend1_17" type="connected" color="1,1,0" from="start1" to="end1" depart="1356.178142" />
    <trip id="start1Toend1_18" type="connected" color="1,1,0" from="start1" to="end1" depart="1358.475848" />
    <trip id="start1Toend1_19" type="connected" color="1,1,0" from="start1" to="end1" depart="1360.800999" />
    <trip id="start1Toend1_20" type="connected" color="1,1,0" from="start1" to="end1" depart="1369.313924" />
    <trip id="start1Toend1_21" type="connected" color="1,1,0" from="start1" to="end1" depart="1378.342322" />
    <trip id="start1Toend2_17" type="connected" color="1,1,0" from="start1" to="end2" depart="1397.241220" />
    <trip id="start2Toend1_20" type="connected" color="1,1,0" from="start2" to="end1" depart="1410.993337" />
    <trip id="start2Toend2_20" type="connected" color="1,1,0" from="start2" to="end2" depart="1424.530711" />
    <trip id="start1Toend2_18" type="connected" color="1,1,0" from="start1" to="end2" depart="1451.396974" />
    <trip id="start1Toend2_19" type="connected" color="1,1,0" from="start1" to="end2" depart="1459.030946" />
    <trip id="start1Toend2_20" type="connected" color="1,1,0" from="start1" to="end2" depart="1483.846582" />
    <trip id="start1Toend1_22" type="connected" color="1,1,0" from="start1" to="end1" depart="1504.264730" />
    <trip id="start2Toend2_21" type="connected" color="1,1,0" from="start2" to="end2" depart="1509.164014" />
    <trip id="start1Toend1_23" type="connected" color="1,1,0" from="start1" to="end1" depart="1510.121891" />
    <trip id="start2Toend1_21" type="connected" color="1,1,0" from="start2" to="end1" depart="1518.976418" />
    <trip id="start2Toend1_22" type="connected" color="1,1,0" from="start2" to="end1" depart="1524.608963" />
    <trip id="start1Toend2_21" type="connected" color="1,1,0" from="start1" to="end2" depart="1552.161615" />
    <trip id="start1Toend1_24" type="connected" color="1,1,0" from="start1" to="end1" depart="1564.926544" />
    <trip id="start2Toend2_22" type="connected" color="1,1,0" from="start2" to="end2" depart="1649.211432" />
    <trip id="start1Toend2_22" type="connected" color="1,1,0" from="start1" to="end2" depart="1665.284621" />
    <trip id="start1Toend2_23" type="connected" color="1,1,0" from="start1" to="end2" depart="1666.845342" />
    <trip id="start2Toend2_23" type="connected" color="1,1,0" from="start2" to="end2" depart="1689.879683" />
    <trip id="start2Toend2_24" type="connected" color="1,1,0" from="start2" to="end2" depart="1705.692921" />
    <trip id="start1Toend1_25" type="connected" color="1,1,0" from="start1" to="end1" depart="1720.727018" />
    <trip id="start2Toend1_23" type="connected" color="1,1,0" from="start2" to="end1" depart="1740.135473" />
    <trip id="start2Toend2_25" type="connected" color="1,1,0" from="start2" to="end2" depart="1742.778649" />
    <trip id="start1Toend1_26" type="connected" color="1,1,0" from="start1" to="end1" depart="1770.989242" />
    <trip id="start1Toend2_24" type="connected" color="1,1,0" from="start1" to="end2" depart="1790.828542" />
    <trip id="start2Toend1_24" type="connected" color="1,1,0" from="start2" to="end1" depart="1792.988759" />
    <trip id="start1Toend2_25" type="connected" color="1,1,0" from="start1" to="end2" depart="1799.277941" />
    <trip id="start2Toend2_26" type="connected" color="1,1,0" from="start2" to="end2" depart="1812.368260" />
    <trip id="start2Toend2_27" type="connected" color="1,1,0" from="start2" to="end2" depart="1818.721997" />
    <trip id="start2Toend2_28" type="connected" color="1,1,0" from="start2" to="end2" depart="1824.456139" />
    <trip id="start2Toend2_29" type="connected" color="1,1,0" from="start2" to="end2" depart="1851.485996" />
    <trip id="start1Toend1_27" type="connected" color="1,1,0" from="start1" to="end1" depart="1858.680078" />
    <trip id="start2Toend1_25" type="connected" color="1,1,0" from="start2" to="end1" depart="1862.149976" />
    <trip id="start1Toend1_28" type="connected" color="1,1,0" from="start1" to="end1" depart="1862.719352" />
    <trip id="start2Toend2_30" type="connected" color="1,1,0" from="start2" to="end2" depart="1901.780404" />
    <trip id="start2Toend2_31" type="connected" color="1,1,0" from="start2" to="end2" depart="1918.070110" />
    <trip id="start1Toend1_29" type="connected" color="1,1,0" from="start1" to="end1" depart="1922.083337" />
    <trip id="start1Toend1_30" type="connected" color="1,1,0" from="start1" to="end1" depart="1966.210449" />
    <trip id="start2Toend2_32" type="connected" color="1,1,0" from="start2" to="end2" depart="1969.262779" />
    <trip id="start2Toend1_26" type="connected" color="1,1,0" from="start2" to="end1" depart="2002.249585" />
    <trip id="start2Toend2_33" type="connected" color="1,1,0" from="start2" to="end2" depart="2026.243496" />
    <trip id="start2Toend1_27" type="connected" color="1,1,0" from="start2" to="end1" depart="2051.632274" />
    <trip id="start1Toend1_31" type="connected" color="1,1,0" from="start1" to="end1" depart="2055.667950" />
    <trip id="start1Toend2_26" type="connected" color="1,1,0" from="start1" to="end2" depart="2059.344752" />
    <trip id="start1Toend1_32" type="connected" color="1,1,0" from="start1" to="end1" depart="2106.517190" />
    <trip id="start1Toend1_33" type="connected" color="1,1,0" from="start1" to="end1" depart="2107.445360" />
    <trip id="start2Toend2_34" type="connected" color="1,1,0" from="start2" to="end2" depart="2178.719298" />
    <trip id="start1Toend2_27" type="connected" color="1,1,0" from="start1" to="end2" depart="2193.533974" />
    <trip id="start2Toend2_35" type="connected" color="1,1,0" from="start2" to="end2" depart="2211.933102" />
    <trip id="start2Toend1_28" type="connected" color="1,1,0" from="start2" to="end1" depart="2220.889869" />
    <trip id="start2Toend2_36" type="connected" color="1,1,0" from="start2" to="end2" depart="2229.284055" />
    <trip id="start2Toend1_29" type="connected" color="1,1,0" from="start2" to="end1" depart="2239.663344" />
    <trip id="start2Toend1_30" type="connected" color="1,1,0" from="start2" to="end1" depart="2294.997572" />
    <trip id="start2Toend1_31" type="connected" color="1,1,0" from="start2" to="end1" depart="2304.997026" />
    <trip id="start1Toend2_28" type="connected" color="1,1,0" from="start1" to="end2" depart="2380.291325" />
    <trip id="start2Toend1_32" type="connected" color="1,1,0" from="start2" to="end1" depart="2393.528106" />
    <trip id="start1Toend2_29" type="connected" color="1,1,0" from="start1" to="end2" depart="2402.003462" />
    <trip id="start1Toend2_30" type="connected" color="1,1,0" from="start1" to="end2" depart="2449.054605" />
    <trip id="start2Toend1_33" type="connected" color="1,1,0" from="start2" to="end1" depart="2456.686091" />
    <trip id="start1Toend2_31" type="connected" color="1,1,0" from="start1" to="end2" depart="2469.290326" />
    <trip id="start2Toend2_37" type="connected" color="1,1,0" from="start2" to="end2" depart="2495.930289" />
    <trip id="start1Toend1_34" type="connected" color="1,1,0" from="start1" to="end1" depart="2504.297264" />
    <trip id="start1Toend2_32" type="connected" color="1,1,0" from="start1" to="end2" depart="2507.019903" />
    <trip id="start1Toend1_35" type="connected" color="1,1,0" from="start1" to="end1" depart="2516.529457" />
    <trip id="start2Toend1_34" type="connected" color="1,1,0" from="start2" to="end1" depart="2542.842725" />
    <trip id="start1Toend2_33" type="connected" color="1,1,0" from="start1" to="end2" depart="2547.043187" />
    <trip id="start2Toend2_38" type="connected" color="1,1,0" from="start2" to="end2" depart="2574.811650" />
    <trip id="start2Toend1_35" type="connected" color="1,1,0" from="start2" to="end1" depart="2590.231618" />
    <trip id="start2Toend2_39" type="connected" color="1,1,0" from="start2" to="end2" depart="2608.281867" />
    <trip id="start2Toend1_36" type="connected" color="1,1,0" from="start2" to="end1" depart="2608.495315" />
    <trip id="start2Toend2_40" type="connected" color="1,1,0" from="start2" to="end2" depart="2632.358773" />
    <trip id="start2Toend1_37" type="connected" color="1,1,0" from="start2" to="end1" depart="2644.534376" />
    <trip id="start1Toend1_36" type="connected" color="1,1,0" from="start1" to="end1" depart="2647.549839" />
    <trip id="start1Toend2_34" type="connected" color="1,1,0" from="start1" to="end2" depart="2658.758092" />
    <trip id="start1Toend2_35" type="connected" color="1,1,0" from="start1" to="end2" depart="2659.474026" />
    <trip id="start1Toend2_36" type="connected" color="1,1,0" from="start1" to="end2" depart="2737.361227" />
    <trip id="start1Toend1_37" type="connected" color="1,1,0" from="start1" to="end1" depart="2764.813153" />
    <trip id="start1Toend1_38" type="connected" color="1,1,0" from="start1" to="end1" depart="2767.022387" />
    <trip id="start2Toend2_41" type="connected" color="1,1,0" from="start2" to="end2" depart="2781.735739" />
    <trip id="start2Toend2_42" type="connected" color="1,1,0" from="start2" to="end2" depart="2791.269462" />
    <trip id="start2Toend2_43" type="connected" color="1,1,0" from="start2" to="end2" depart="2822.672005" />
    <trip id="start1Toend1_39" type="connected" color="1,1,0" from="start1" to="end1" depart="2825.145378" />
    <trip id="start1Toend1_40" type="connected" color="1,1,0" from="start1" to="end1" depart="2864.000759" />
    <trip id="start2Toend2_44" type="connected" color="1,1,0" from="start2" to="end2" depart="2873.614332" />
    <trip id="start1Toend2_37" type="connected" color="1,1,0" from="start1" to="end2" depart="2911.923225" />
    <trip id="start2Toend1_38" type="connected" color="1,1,0" from="start2" to="end1" depart="2941.528123" />
    <trip id="start2Toend2_45" type="connected" color="1,1,0" from="start2" to="end2" depart="2979.669064" />
    <trip id="start2Toend1_39" type="connected" color="1,1,0" from="start2" to="end1" depart="2993.417251" />
    <trip id="start2Toend1_40" type="connected" color="1,1,0" from="start2" to="end1" depart="2999.185950" />
    <trip id="start2Toend2_46" type="connected" color="1,1,0" from="start2" to="end2" depart="3003.749718" />
    <trip id="start2Toend2_47" type="connected" color="1,1,0" from="start2" to="end2" depart="3014.223431" />
    <trip id="start1Toend1_41" type="connected" color="1,1,0" from="start1" to="end1" depart="3014.921534" />
    <trip id="start1Toend2_38" type="connected" color="1,1,0" from="start1" to="end2" depart="3016.700924" />
    <trip id="start2Toend1_41" type="connected" color="1,1,0" from="start2" to="end1" depart="3023.417197" />
    <trip id="start2Toend1_42" type="connected" color="1,1,0" from="start2" to="end1" depart="3047.387407" />
    <trip id="start2Toend2_48" type="connected" color="1,1,0" from="start2" to="end2" depart="3048.941443" />
    <trip id="start1Toend2_39" type="connected" color="1,1,0" from="start1" to="end2" depart="3055.321983" />
    <trip id="start2Toend2_49" type="connected" color="1,1,0" from="start2" to="end2" depart="3065.918000" />
    <trip id="start1Toend1_42" type="connected" color="1,1,0" from="start1" to="end1" depart="3077.018645" />
    <trip id="start2Toend2_50" type="connected" color="1,1,0" from="start2" to="end2" depart="3091.323539" />
    <trip id="start1Toend2_40" type="connected" color="1,1,0" from="start1" to="end2" depart="3091.751927" />
    <trip id="start1Toend2_41" type="connected" color="1,1,0" from="start1" to="end2" depart="3100.604098" />
    <trip id="start1Toend1_43" type="connected" color="1,1,0" from="start1" to="end1" depart="3264.869778" />
    <trip id="start1Toend2_42" type="connected" color="1,1,0" from="start1" to="end2" depart="3269.437388" />
    <trip id="start2Toend1_43" type="connected" color="1,1,0" from="start2" to="end1" depart="3284.307336" />
    <trip id="start2Toend1_44" type="connected" color="1,1,0" from="start2" to="end1" depart="3289.232169" />
    <trip id="start2Toend1_45" type="connected" color="1,1,0" from="start2" to="end1" depart="3295.530580" />
    <trip id="start1Toend2_43" type="connected" color="1,1,0" from="start1" to="end2" depart="3311.571306" />
    <trip id="start1Toend1_44" type="connected" color="1,1,0" from="start1" to="end1" depart="3315.655308" />
    <trip id="start1Toend1_45" type="connected" color="1,1,0" from="start1" to="end1" depart="3362.394827" />
    <trip id="start1Toend1_46" type="connected" color="1,1,0" from="start1" to="end1" depart="3392.546328" />
    <trip id="start2Toend2_51" type="connected" color="1,1,0" from="start2" to="end2" depart="3413.085599" />
    <trip id="start1Toend2_44" type="connected" color="1,1,0" from="start1" to="end2" depart="3416.748788" />
    <trip id="start1Toend1_47" type="connected" color="1,1,0" from="start1" to="end1" depart="3443.421597" />
    <trip id="start1Toend2_45" type="connected" color="1,1,0" from="start1" to="end2" depart="3450.730882" />
    <trip id="start1Toend1_48" type="connected" color="1,1,0" from="start1" to="end1" depart="3464.517836" />
    <trip id="start2Toend2_52" type="connected" color="1,1,0" from="start2" to="end2" depart="3506.456827" />
    <trip id="start1Toend1_49" type="connected" color="1,1,0" from="start1" to="end1" depart="3509.893922" />
    <trip id="start2Toend2_53" type="connected" color="1,1,0" from="start2" to="end2" depart="3533.781737" />
    <trip id="start1Toend1_50" type="connected" color="1,1,0" from="start1" to="end1" depart="3554.754648" />
    <trip id="start2Toend2_54" type="connected" color="1,1,0" from="start2" to="end2" depart="3557.911689" />
    <trip id="start1Toend2_46" type="connected" color="1,1,0" from="start1" to="end2" depart="3565.994499" />
    <trip id="start1Toend2_47" type="connected" color="1,1,0" from="start1" to="end2" depart="3612.763779" />
    <trip id="start1Toend1_51" type="connected" color="1,1,0" from="start1" to="end1" depart="3617.834733" />
    <trip id="start2Toend1_46" type="connected" color="1,1,0" from="start2" to="end1" depart="3619.836151" />
    <trip id="start1Toend1_52" type="connected" color="1,1,0" from="start1" to="end1" depart="3638.891031" />
    <trip id="start1Toend1_53" type="connected" color="1,1,0" from="start1" to="end1" depart="3659.784963" />
    <trip id="start2Toend2_55" type="connected" color="1,1,0" from="start2" to="end2" depart="3684.309223" />
    <trip id="start1Toend1_54" type="connected" color="1,1,0" from="start1" to="end1" depart="3699.815539" />
    <trip id="start2Toend2_56" type="connected" color="1,1,0" from="start2" to="end2" depart="3711.694941" />
    <trip id="start1Toend1_55" type="connected" color="1,1,0" from="start1" to="end1" depart="3718.553391" />
    <trip id="start1Toend2_48" type="connected" color="1,1,0" from="start1" to="end2" depart="3734.045582" />
    <trip id="start1Toend1_56" type="connected" color="1,1,0" from="start1" to="end1" depart="3751.486210" />
    <trip id="start1Toend1_57" type="connected" color="1,1,0" from="start1" to="end1" depart="3773.583625" />
    <trip id="start1Toend1_58" type="connected" color="1,1,0" from="start1" to="end1" depart="3774.693968" />
    <trip id="start2Toend2_57" type="connected" color="1,1,0" from="start2" to="end2" depart="3795.085145" />
    <trip id="start2Toend1_47" type="connected" color="1,1,0" from="start2" to="end1" depart="3842.072757" />
    <trip id="start1Toend1_59" type="connected" color="1,1,0" from="start1" to="end1" depart="3876.597041" />
    <trip id="start1Toend1_60" type="connected" color="1,1,0" from="start1" to="end1" depart="3878.886379" />
    <trip id="start1Toend2_49" type="connected" color="1,1,0" from="start1" to="end2" depart="3898.005988" />
    <trip id="start2Toend2_58" type="connected" color="1,1,0" from="start2" to="end2" depart="3956.743609" />
    <trip id="start1Toend1_61" type="connected" color="1,1,0" from="start1" to="end1" depart="3964.380136" />
    <trip id="start1Toend2_50" type="connected" color="1,1,0" from="start1" to="end2" depart="3975.901697" />
    <trip id="start2Toend1_48" type="connected" color="1,1,0" from="start2" to="end1" depart="4004.644811" />
    <trip id="start1Toend1_62" type="connected" color="1,1,0" from="start1" to="end1" depart="4050.215496" />
    <trip id="start1Toend1_63" type="connected" color="1,1,0" from="start1" to="end1" depart="4054.382771" />
    <trip id="start1Toend1_64" type="connected" color="1,1,0" from="start1" to="end1" depart="4060.129080" />
    <trip id="start2Toend1_49" type="connected" color="1,1,0" from="start2" to="end1" depart="4094.317536" />
    <trip id="start2Toend2_59" type="connected" color="1,1,0" from="start2" to="end2" depart="4097.770814" />
    <trip id="start1Toend2_51" type="connected" color="1,1,0" from="start1" to="end2" depart="4117.265303" />
    <trip id="start1Toend2_52" type="connected" color="1,1,0" from="start1" to="end2" depart="4129.929345" />
    <trip id="start1Toend2_53" type="connected" color="1,1,0" from="start1" to="end2" depart="4142.247428" />
    <trip id="start2Toend2_60" type="connected" color="1,1,0" from="start2" to="end2" depart="4143.416710" />
    <trip id="start2Toend1_50" type="connected" color="1,1,0" from="start2" to="end1" depart="4164.971301" />
    <trip id="start1Toend1_65" type="connected" color="1,1,0" from="start1" to="end1" depart="4173.116211" />
    <trip id="start2Toend1_51" type="connected" color="1,1,0" from="start2" to="end1" depart="4178.497097" />
    <trip id="start2Toend1_52" type="connected" color="1,1,0" from="start2" to="end1" depart="4210.906130" />
    <trip id="start2Toend1_53" type="connected" color="1,1,0" from="start2" to="end1" depart="4227.888799" />
    <trip id="start2Toend2_61" type="connected" color="1,1,0" from="start2" to="end2" depart="4231.333320" />
    <trip id="start2Toend1_54" type="connected" color="1,1,0" from="start2" to="end1" depart="4239.365084" />
    <trip id="start1Toend1_66" type="connected" color="1,1,0" from="start1" to="end1" depart="4281.943476" />
    <trip id="start2Toend1_55" type="connected" color="1,1,0" from="start2" to="end1" depart="4289.791850" />
    <trip id="start1Toend1_67" type="connected" color="1,1,0" from="start1" to="end1" depart="4300.034224" />
    <trip id="start2Toend2_62" type="connected" color="1,1,0" from="start2" to="end2" depart="4311.776083" />
    <trip id="start1Toend1_68" type="connected" color="1,1,0" from="start1" to="end1" depart="4389.351835" />
    <trip id="start2Toend2_63" type="connected" color="1,1,0" from="start2" to="end2" depart="4402.744571" />
    <trip id="start1Toend2_54" type="connected" color="1,1,0" from="start1" to="end2" depart="4424.228587" />
    <trip id="start2Toend2_64" type="connected" color="1,1,0" from="start2" to="end2" depart="4438.653162" />
    <trip id="start1Toend1_69" type="connected" color="1,1,0" from="start1" to="end1" depart="4447.403500" />
    <trip id="start2Toend1_56" type="connected" color="1,1,0" from="start2" to="end1" depart="4474.404705" />
    <trip id="start2Toend1_57" type="connected" color="1,1,0" from="start2" to="end1" depart="4495.427616" />
    <trip id="start1Toend2_55" type="connected" color="1,1,0" from="start1" to="end2" depart="4496.089047" />
    <trip id="start2Toend1_58" type="connected" color="1,1,0" from="start2" to="end1" depart="4505.238495" />
    <trip id="start1Toend1_70" type="connected" color="1,1,0" from="start1" to="end1" depart="4509.719521" />
    <trip id="start2Toend1_59" type="connected" color="1,1,0" from="start2" to="end1" depart="4527.820445" />
    <trip id="start1Toend2_56" type="connected" color="1,1,0" from="start1" to="end2" depart="4534.163629" />
    <trip id="start2Toend1_60" type="connected" color="1,1,0" from="start2" to="end1" depart="4541.209372" />
    <trip id="start2Toend2_65" type="connected" color="1,1,0" from="start2" to="end2" depart="4565.254663" />
    <trip id="start1Toend1_71" type="connected" color="1,1,0" from="start1" to="end1" depart="4608.371366" />
    <trip id="start2Toend2_66" type="connected" color="1,1,0" from="start2" to="end2" depart="4616.955329" />
    <trip id="start2Toend2_67" type="connected" color="1,1,0" from="start2" to="end2" depart="4630.996383" />
    <trip id="start2Toend2_68" type="connected" color="1,1,0" from="start2" to="end2" depart="4636.189150" />
    <trip id="start2Toend1_61" type="connected" color="1,1,0" from="start2" to="end1" depart="4681.908374" />
    <trip id="start2Toend1_62" type="connected" color="1,1,0" from="start2" to="end1" depart="4711.393370" />