<?xml version="1.0" encoding="UTF-8"?>

<routes>

	<route id="route0" edges="start1 end1" />
    <route id="route1" edges="start1 end2" />
    <route id="route2" edges="start2 end1" />
    <route id="route3" edges="start2 end2" />


    <vType id="conventional" vClass="passenger" sigma="1" maxSpeed="40.0" color="red" accel="10.0"/>
    <vType id="connected" vClass="passenger" tau="1.3" maxSpeed="28.00" lcCooperative="0.0" color="1,1,0" lcStrategic="1.0" accel="3.0" decel="1.5" emergencyDecel="4.5" lcSpeedGain="0.3" sigma="0.0" lcKeepRight="0.3"/>
    <vType id="connected_pCatchupFollower" vClass="passenger" emergencyDecel="4.5" length="5" tau="0.1" maxSpeed="28.00" color="1,1,0" accel="10.3" decel="1.7" sigma="0.0" minGap="2.0"/>
    <vType id="connected_pCatchup" vClass="passenger" tau="0.1" emergencyDecel="4.5" maxSpeed="28.00" color="0,0.8,0.3" accel="10.3" decel="1.7" sigma="0.0" minGap="2.0"/>
    <vType id="connected_pFollower" vClass="passenger" tau="0.1" maxSpeed="28.00" color="1,1,0" accel="10.3" decel="1.7" sigma="0.0"  minGap="2.0" emergencyDecel="4.5"/>
    <vType id="connected_pLeader" vClass="passenger" length="5" tau="1.3" maxSpeed="28.00" lcCooperative="0.0" color="1,1,0" lcStrategic="1.0" accel="2.0" decel="1.5" emergencyDecel="4.5" lcSpeedGain="0.3" sigma="0.0" lcKeepRight="0.3"/>
    


	
    <trip id="start1Toend1_0" type="connected" color="1,1,0" from="start1" to="end1" depart="0.000000" />
    <trip id="start2Toend1_0" type="connected" color="1,1,0" from="start2" to="end1" depart="0.000000" />
    <trip id="start1Toend2_0" type="connected" color="1,1,0" from="start1" to="end2" depart="0.000000" />
    <trip id="start2Toend2_0" type="connected" color="1,1,0" from="start2" to="end2" depart="0.000000" />
    <trip id="start2Toend1_1" type="connected" color="1,1,0" from="start2" to="end1" depart="2.225927" />
    <trip id="start1Toend2_1" type="connected" color="1,1,0" from="start1" to="end2" depart="10.266132" />
    <trip id="start1Toend1_1" type="connected" color="1,1,0" from="start1" to="end1" depart="17.277320" />
    <trip id="start2Toend2_1" type="connected" color="1,1,0" from="start2" to="end2" depart="18.539963" />
    <trip id="start1Toend1_2" type="connected" color="1,1,0" from="start1" to="end1" depart="23.594286" />
    <trip id="start2Toend1_2" type="connected" color="1,1,0" from="start2" to="end1" depart="49.894385" />
    <trip id="start1Toend1_3" type="connected" color="1,1,0" from="start1" to="end1" depart="59.886515" />
    <trip id="start2Toend1_3" type="connected" color="1,1,0" from="start2" to="end1" depart="72.576095" />
    <trip id="start1Toend1_4" type="connected" color="1,1,0" from="start1" to="end1" depart="102.697938" />
    <trip id="start1Toend1_5" type="connected" color="1,1,0" from="start1" to="end1" depart="148.287542" />
    <trip id="start2Toend2_2" type="connected" color="1,1,0" from="start2" to="end2" depart="171.564436" />
    <trip id="start1Toend1_6" type="connected" color="1,1,0" from="start1" to="end1" depart="191.936289" />
    <trip id="start2Toend1_4" type="connected" color="1,1,0" from="start2" to="end1" depart="226.474447" />
    <trip id="start1Toend1_7" type="connected" color="1,1,0" from="start1" to="end1" depart="240.415276" />
    <trip id="start1Toend1_8" type="connected" color="1,1,0" from="start1" to="end1" depart="292.289743" />
    <trip id="start2Toend1_5" type="connected" color="1,1,0" from="start2" to="end1" depart="294.476423" />
    <trip id="start1Toend1_9" type="connected" color="1,1,0" from="start1" to="end1" depart="326.156752" />
    <trip id="start2Toend2_3" type="connected" color="1,1,0" from="start2" to="end2" depart="340.390893" />
    <trip id="start2Toend2_4" type="connected" color="1,1,0" from="start2" to="end2" depart="385.657919" />
    <trip id="start2Toend2_5" type="connected" color="1,1,0" from="start2" to="end2" depart="424.667967" />
    <trip id="start1Toend2_2" type="connected" color="1,1,0" from="start1" to="end2" depart="427.296838" />
    <trip id="start1Toend2_3" type="connected" color="1,1,0" from="start1" to="end2" depart="431.504150" />
    <trip id="start2Toend2_6" type="connected" color="1,1,0" from="start2" to="end2" depart="463.555424" />
    <trip id="start2Toend2_7" type="connected" color="1,1,0" from="start2" to="end2" depart="511.427513" />
    <trip id="start2Toend1_6" type="connected" color="1,1,0" from="start2" to="end1" depart="512.025067" />
    <trip id="start2Toend2_8" type="connected" color="1,1,0" from="start2" to="end2" depart="527.079442" />
    <trip id="start2Toend2_9" type="connected" color="1,1,0" from="start2" to="end2" depart="527.751336" />
    <trip id="start1Toend2_4" type="connected" color="1,1,0" from="start1" to="end2" depart="532.977518" />
    <trip id="start1Toend2_5" type="connected" color="1,1,0" from="start1" to="end2" depart="555.612008" />
    <trip id="start1Toend2_6" type="connected" color="1,1,0" from="start1" to="end2" depart="567.435050" />
    <trip id="start1Toend2_7" type="connected" color="1,1,0" from="start1" to="end2" depart="571.934148" />
    <trip id="start1Toend1_10" type="connected" color="1,1,0" from="start1" to="end1" depart="599.636706" />
    <trip id="start2Toend2_10" type="connected" color="1,1,0" from="start2" to="end2" depart="617.112068" />
    <trip id="start1Toend2_8" type="connected" color="1,1,0" from="start1" to="end2" depart="642.176741" />
    <trip id="start2Toend2_11" type="connected" color="1,1,0" from="start2" to="end2" depart="664.583303" />
    <trip id="start1Toend1_11" type="connected" color="1,1,0" from="start1" to="end1" depart="670.628171" />
    <trip id="start2Toend2_12" type="connected" color="1,1,0" from="start2" to="end2" depart="679.605534" />
    <trip id="start2Toend1_7" type="connected" color="1,1,0" from="start2" to="end1" depart="684.094670" />
    <trip id="start2Toend1_8" type="connected" color="1,1,0" from="start2" to="end1" depart="689.321059" />
    <trip id="start2Toend1_9" type="connected" color="1,1,0" from="start2" to="end1" depart="710.391051" />
    <trip id="start2Toend2_13" type="connected" color="1,1,0" from="start2" to="end2" depart="723.662775" />
    <trip id="start1Toend1_12" type="connected" color="1,1,0" from="start1" to="end1" depart="742.332713" />
    <trip id="start1Toend2_9" type="connected" color="1,1,0" from="start1" to="end2" depart="783.348793" />
    <trip id="start1Toend1_13" type="connected" color="1,1,0" from="start1" to="end1" depart="798.830733" />
    <trip id="start1Toend2_10" type="connected" color="1,1,0" from="start1" to="end2" depart="808.523016" />
    <trip id="start1Toend2_11" type="connected" color="1,1,0" from="start1" to="end2" depart="835.787703" />
    <trip id="start2Toend2_14" type="connected" color="1,1,0" from="start2" to="end2" depart="853.311919" />
    <trip id="start1Toend2_12" type="connected" color="1,1,0" from="start1" to="end2" depart="885.366462" />
    <trip id="start2Toend1_10" type="connected" color="1,1,0" from="start2" to="end1" depart="899.854214" />
    <trip id="start2Toend2_15" type="connected" color="1,1,0" from="start2" to="end2" depart="903.115337" />
    <trip id="start2Toend2_16" type="connected" color="1,1,0" from="start2" to="end2" depart="962.838309" />
    <trip id="start2Toend2_17" type="connected" color="1,1,0" from="start2" to="end2" depart="965.077092" />
    <trip id="start2Toend2_18" type="connected" color="1,1,0" from="start2" to="end2" depart="968.005286" />
    <trip id="start2Toend1_11" type="connected" color="1,1,0" from="start2" to="end1" depart="969.975734" />
    <trip id="start1Toend2_13" type="connected" color="1,1,0" from="start1" to="end2" depart="993.119794" />
    <trip id="start1Toend2_14" type="connected" color="1,1,0" from="start1" to="end2" depart="1003.329227" />
    <trip id="start2Toend1_12" type="connected" color="1,1,0" from="start2" to="end1" depart="1015.452038" />
    <trip id="start1Toend2_15" type="connected" color="1,1,0" from="start1" to="end2" depart="1032.854877" />
    <trip id="start1Toend1_14" type="connected" color="1,1,0" from="start1" to="end1" depart="1047.627634" />
    <trip id="start2Toend2_19" type="connected" color="1,1,0" from="start2" to="end2" depart="1050.822125" />
    <trip id="start1Toend2_16" type="connected" color="1,1,0" from="start1" to="end2" depart="1075.225287" />
    <trip id="start1Toend1_15" type="connected" color="1,1,0" from="start1" to="end1" depart="1094.351384" />
    <trip id="start2Toend1_13" type="connected" color="1,1,0" from="start2" to="end1" depart="1155.382833" />
    <trip id="start1Toend2_17" type="connected" color="1,1,0" from="start1" to="end2" depart="1157.291003" />
    <trip id="start1Toend1_16" type="connected" color="1,1,0" from="start1" to="end1" depart="1167.303366" />
    <trip id="start2Toend1_14" type="connected" color="1,1,0" from="start2" to="end1" depart="1172.261914" />
    <trip id="start2Toend2_20" type="connected" color="1,1,0" from="start2" to="end2" depart="1188.164954" />
    <trip id="start2Toend2_21" type="connected" color="1,1,0" from="start2" to="end2" depart="1188.939639" />
    <trip id="start2Toend1_15" type="connected" color="1,1,0" from="start2" to="end1" depart="1237.316920" />
    <trip id="start1Toend2_18" type="connected" color="1,1,0" from="start1" to="end2" depart="1269.746435" />
    <trip id="start1Toend1_17" type="connected" color="1,1,0" from="start1" to="end1" depart="1338.370017" />
    <trip id="start1Toend2_19" type="connected" color="1,1,0" from="start1" to="end2" depart="1341.038963" />
    <trip id="start1Toend1_18" type="connected" color="1,1,0" from="start1" to="end1" depart="1357.065023" />
    <trip id="start1Toend1_19" type="connected" color="1,1,0" from="start1" to="end1" depart="1369.779085" />
    <trip id="start1Toend2_20" type="connected" color="1,1,0" from="start1" to="end2" depart="1383.301452" />
    <trip id="start2Toend2_22" type="connected" color="1,1,0" from="start2" to="end2" depart="1399.536788" />
    <trip id="start2Toend1_16" type="connected" color="1,1,0" from="start2" to="end1" depart="1419.815802" />
    <trip id="start1Toend1_20" type="connected" color="1,1,0" from="start1" to="end1" depart="1462.504235" />
    <trip id="start1Toend2_21" type="connected" color="1,1,0" from="start1" to="end2" depart="1465.108650" />
    <trip id="start1Toend2_22" type="connected" color="1,1,0" from="start1" to="end2" depart="1482.121961" />
    <trip id="start2Toend1_17" type="connected" color="1,1,0" from="start2" to="end1" depart="1483.890032" />
    <trip id="start2Toend2_23" type="connected" color="1,1,0" from="start2" to="end2" depart="1486.824262" />
    <trip id="start2Toend2_24" type="connected" color="1,1,0" from="start2" to="end2" depart="1497.065759" />
    <trip id="start1Toend2_23" type="connected" color="1,1,0" from="start1" to="end2" depart="1498.985872" />
    <trip id="start2Toend2_25" type="connected" color="1,1,0" from="start2" to="end2" depart="1519.868743" />
    <trip id="start2Toend2_26" type="connected" color="1,1,0" from="start2" to="end2" depart="1559.439680" />
    <trip id="start1Toend1_21" type="connected" color="1,1,0" from="start1" to="end1" depart="1564.948522" />
    <trip id="start2Toend2_27" type="connected" color="1,1,0" from="start2" to="end2" depart="1576.092073" />
    <trip id="start2Toend1_18" type="connected" color="1,1,0" from="start2" to="end1" depart="1576.726157" />
    <trip id="start1Toend1_22" type="connected" color="1,1,0" from="start1" to="end1" depart="1593.003353" />
    <trip id="start2Toend2_28" type="connected" color="1,1,0" from="start2" to="end2" depart="1601.017017" />
    <trip id="start2Toend1_19" type="connected" color="1,1,0" from="start2" to="end1" depart="1611.030471" />
    <trip id="start2Toend2_29" type="connected" color="1,1,0" from="start2" to="end2" depart="1652.597597" />
    <trip id="start1Toend2_24" type="connected" color="1,1,0" from="start1" to="end2" depart="1652.809062" />
    <trip id="start2Toend1_20" type="connected" color="1,1,0" from="start2" to="end1" depart="1655.299918" />
    <trip id="start1Toend2_25" type="connected" color="1,1,0" from="start1" to="end2" depart="1673.780438" />
    <trip id="start1Toend1_23" type="connected" color="1,1,0" from="start1" to="end1" depart="1693.715021" />
    <trip id="start2Toend2_30" type="connected" color="1,1,0" from="start2" to="end2" depart="1700.891314" />
    <trip id="start2Toend2_31" type="connected" color="1,1,0" from="start2" to="end2" depart="1715.449657" />
    <trip id="start1Toend2_26" type="connected" color="1,1,0" from="start1" to="end2" depart="1722.855439" />
    <trip id="start1Toend1_24" type="connected" color="1,1,0" from="start1" to="end1" depart="1736.068262" />
    <trip id="start2Toend2_32" type="connected" color="1,1,0" from="start2" to="end2" depart="1796.868197" />
    <trip id="start1Toend1_25" type="connected" color="1,1,0" from="start1" to="end1" depart="1799.433411" />
    <trip id="start2Toend2_33" type="connected" color="1,1,0" from="start2" to="end2" depart="1820.498966" />
    <trip id="start2Toend2_34" type="connected" color="1,1,0" from="start2" to="end2" depart="1831.187501" />
    <trip id="start2Toend1_21" type="connected" color="1,1,0" from="start2" to="end1" depart="1849.223291" />
    <trip id="start1Toend2_27" type="connected" color="1,1,0" from="start1" to="end2" depart="1849.554684" />
    <trip id="start1Toend1_26" type="connected" color="1,1,0" from="start1" to="end1" depart="1860.091115" />
    <trip id="start2Toend2_35" type="connected" color="1,1,0" from="start2" to="end2" depart="1871.101247" />
    <trip id="start2Toend1_22" type="connected" color="1,1,0" from="start2" to="end1" depart="1893.881053" />
    <trip id="start1Toend2_28" type="connected" color="1,1,0" from="start1" to="end2" depart="1897.229812" />
    <trip id="start1Toend1_27" type="connected" color="1,1,0" from="start1" to="end1" depart="1909.352660" />
    <trip id="start2Toend1_23" type="connected" color="1,1,0" from="start2" to="end1" depart="1910.656794" />
    <trip id="start1Toend1_28" type="connected" color="1,1,0" from="start1" to="end1" depart="1972.127715" />
    <trip id="start1Toend1_29" type="connected" color="1,1,0" from="start1" to="end1" depart="1990.719146" />
    <trip id="start2Toend2_36" type="connected" color="1,1,0" from="start2" to="end2" depart="1997.318835" />
    <trip id="start1Toend1_30" type="connected" color="1,1,0" from="start1" to="end1" depart="2013.179487" />
    <trip id="start2Toend2_37" type="connected" color="1,1,0" from="start2" to="end2" depart="2070.209717" />
    <trip id="start2Toend1_24" type="connected" color="1,1,0" from="start2" to="end1" depart="2072.782034" />
    <trip id="start1Toend1_31" type="connected" color="1,1,0" from="start1" to="end1" depart="2075.474807" />
    <trip id="start2Toend1_25" type="connected" color="1,1,0" from="start2" to="end1" depart="2086.163064" />
    <trip id="start2Toend1_26" type="connected" color="1,1,0" from="start2" to="end1" depart="2093.807651" />
    <trip id="start2Toend1_27" type="connected" color="1,1,0" from="start2" to="end1" depart="2189.292919" />
    <trip id="start2Toend1_28" type="connected" color="1,1,0" from="start2" to="end1" depart="2262.928179" />
    <trip id="start1Toend1_32" type="connected" color="1,1,0" from="start1" to="end1" depart="2267.103866" />
    <trip id="start1Toend2_29" type="connected" color="1,1,0" from="start1" to="end2" depart="2303.853955" />
    <trip id="start2Toend1_29" type="connected" color="1,1,0" from="start2" to="end1" depart="2307.826731" />
    <trip id="start2Toend2_38" type="connected" color="1,1,0" from="start2" to="end2" depart="2312.831342" />
    <trip id="start1Toend1_33" type="connected" color="1,1,0" from="start1" to="end1" depart="2315.727694" />
    <trip id="start1Toend1_34" type="connected" color="1,1,0" from="start1" to="end1" depart="2326.577857" />
    <trip id="start1Toend1_35" type="connected" color="1,1,0" from="start1" to="end1" depart="2336.265627" />
    <trip id="start1Toend1_36" type="connected" color="1,1,0" from="start1" to="end1" depart="2349.763064" />
    <trip id="start2Toend2_39" type="connected" color="1,1,0" from="start2" to="end2" depart="2369.989549" />
    <trip id="start2Toend1_30" type="connected" color="1,1,0" from="start2" to="end1" depart="2391.753095" />
    <trip id="start1Toend1_37" type="connected" color="1,1,0" from="start1" to="end1" depart="2393.517224" />
    <trip id="start2Toend1_31" type="connected" color="1,1,0" from="start2" to="end1" depart="2393.558104" />
    <trip id="start1Toend1_38" type="connected" color="1,1,0" from="start1" to="end1" depart="2399.072990" />
    <trip id="start1Toend1_39" type="connected" color="1,1,0" from="start1" to="end1" depart="2487.825447" />
    <trip id="start1Toend1_40" type="connected" color="1,1,0" from="start1" to="end1" depart="2547.760033" />
    <trip id="start2Toend2_40" type="connected" color="1,1,0" from="start2" to="end2" depart="2571.086092" />
    <trip id="start1Toend1_41" type="connected" color="1,1,0" from="start1" to="end1" depart="2580.229147" />
    <trip id="start2Toend2_41" type="connected" color="1,1,0" from="start2" to="end2" depart="2592.395163" />
    <trip id="start1Toend2_30" type="connected" color="1,1,0" from="start1" to="end2" depart="2607.764967" />
    <trip id="start2Toend1_32" type="connected" color="1,1,0" from="start2" to="end1" depart="2622.423703" />
    <trip id="start2Toend1_33" type="connected" color="1,1,0" from="start2" to="end1" depart="2632.743439" />
    <trip id="start2Toend2_42" type="connected" color="1,1,0" from="start2" to="end2" depart="2635.751381" />
    <trip id="start1Toend1_42" type="connected" color="1,1,0" from="start1" to="end1" depart="2644.374934" />
    <trip id="start1Toend2_31" type="connected" color="1,1,0" from="start1" to="end2" depart="2667.422554" />
    <trip id="start2Toend2_43" type="connected" color="1,1,0" from="start2" to="end2" depart="2668.167120" />
    <trip id="start2Toend2_44" type="connected" color="1,1,0" from="start2" to="end2" depart="2671.912946" />
    <trip id="start2Toend2_45" type="connected" color="1,1,0" from="start2" to="end2" depart="2703.886197" />
    <trip id="start1Toend2_32" type="connected" color="1,1,0" from="start1" to="end2" depart="2745.420916" />
    <trip id="start1Toend1_43" type="connected" color="1,1,0" from="start1" to="end1" depart="2745.687913" />
    <trip id="start1Toend2_33" type="connected" color="1,1,0" from="start1" to="end2" depart="2760.315706" />
    <trip id="start1Toend1_44" type="connected" color="1,1,0" from="start1" to="end1" depart="2760.726639" />
    <trip id="start1Toend2_34" type="connected" color="1,1,0" from="start1" to="end2" depart="2781.718408" />
    <trip id="start1Toend2_35" type="connected" color="1,1,0" from="start1" to="end2" depart="2792.854923" />
    <trip id="start1Toend1_45" type="connected" color="1,1,0" from="start1" to="end1" depart="2820.507225" />
    <trip id="start1Toend2_36" type="connected" color="1,1,0" from="start1" to="end2" depart="2836.273782" />
    <trip id="start2Toend1_34" type="connected" color="1,1,0" from="start2" to="end1" depart="2849.615496" />
    <trip id="start2Toend1_35" type="connected" color="1,1,0" from="start2" to="end1" depart="2850.212684" />
    <trip id="start2Toend1_36" type="connected" color="1,1,0" from="start2" to="end1" depart="2855.396542" />
    <trip id="start2Toend2_46" type="connected" color="1,1,0" from="start2" to="end2" depart="2869.976524" />
    <trip id="start2Toend1_37" type="connected" color="1,1,0" from="start2" to="end1" depart="2870.760882" />
    <trip id="start2Toend2_47" type="connected" color="1,1,0" from="start2" to="end2" depart="2878.670770" />
    <trip id="start2Toend1_38" type="connected" color="1,1,0" from="start2" to="end1" depart="2899.128200" />
    <trip id="start1Toend2_37" type="connected" color="1,1,0" from="start1" to="end2" depart="2905.558373" />
    <trip id="start2Toend1_39" type="connected" color="1,1,0" from="start2" to="end1" depart="2910.030284" />
    <trip id="start2Toend2_48" type="connected" color="1,1,0" from="start2" to="end2" depart="2941.361637" />
    <trip id="start1Toend1_46" type="connected" color="1,1,0" from="start1" to="end1" depart="2969.262348" />
    <trip id="start1Toend2_38" type="connected" color="1,1,0" from="start1" to="end2" depart="3006.037579" />
    <trip id="start1Toend1_47" type="connected" color="1,1,0" from="start1" to="end1" depart="3006.165655" />
    <trip id="start2Toend1_40" type="connected" color="1,1,0" from="start2" to="end1" depart="3055.658537" />
    <trip id="start1Toend1_48" type="connected" color="1,1,0" from="start1" to="end1" depart="3058.138023" />
    <trip id="start2Toend1_41" type="connected" color="1,1,0" from="start2" to="end1" depart="3108.633573" />
    <trip id="start1Toend1_49" type="connected" color="1,1,0" from="start1" to="end1" depart="3129.339932" />
    <trip id="start2Toend2_49" type="connected" color="1,1,0" from="start2" to="end2" depart="3133.778472" />
    <trip id="start1Toend1_50" type="connected" color="1,1,0" from="start1" to="end1" depart="3144.214374" />
    <trip id="start2Toend1_42" type="connected" color="1,1,0" from="start2" to="end1" depart="3150.778026" />
    <trip id="start1Toend2_39" type="connected" color="1,1,0" from="start1" to="end2" depart="3160.351994" />
    <trip id="start2Toend2_50" type="connected" color="1,1,0" from="start2" to="end2" depart="3161.226592" />
    <trip id="start2Toend2_51" type="connected" color="1,1,0" from="start2" to="end2" depart="3191.495541" />
    <trip id="start2Toend1_43" type="connected" color="1,1,0" from="start2" to="end1" depart="3193.969458" />
    <trip id="start2Toend2_52" type="connected" color="1,1,0" from="start2" to="end2" depart="3242.494560" />
    <trip id="start2Toend2_53" type="connected" color="1,1,0" from="start2" to="end2" depart="3274.416047" />
    <trip id="start2Toend1_44" type="connected" color="1,1,0" from="start2" to="end1" depart="3338.363044" />
    <trip id="start2Toend2_54" type="connected" color="1,1,0" from="start2" to="end2" depart="3347.191941" />
    <trip id="start2Toend2_55" type="connected" color="1,1,0" from="start2" to="end2" depart="3355.024518" />
    <trip id="start2Toend1_45" type="connected" color="1,1,0" from="start2" to="end1" depart="3361.715439" />
    <trip id="start2Toend1_46" type="connected" color="1,1,0" from="start2" to="end1" depart="3398.077044" />
    <trip id="start1Toend2_40" type="connected" color="1,1,0" from="start1" to="end2" depart="3420.132300" />
    <trip id="start2Toend1_47" type="connected" color="1,1,0" from="start2" to="end1" depart="3424.671437" />
    <trip id="start1Toend1_51" type="connected" color="1,1,0" from="start1" to="end1" depart="3451.950511" />
    <trip id="start2Toend1_48" type="connected" color="1,1,0" from="start2" to="end1" depart="3475.999593" />
    <trip id="start1Toend1_52" type="connected" color="1,1,0" from="start1" to="end1" depart="3604.593466" />
    <trip id="start1Toend1_53" type="connected" color="1,1,0" from="start1" to="end1" depart="3618.963555" />
    <trip id="start1Toend1_54" type="connected" color="1,1,0" from="start1" to="end1" depart="3625.088368" />
    <trip id="start1Toend2_41" type="connected" color="1,1,0" from="start1" to="end2" depart="3645.269690" />
    <trip id="start1Toend1_55" type="connected" color="1,1,0" from="start1" to="end1" depart="3646.121901" />
    <trip id="start2Toend2_56" type="connected" color="1,1,0" from="start2" to="end2" depart="3665.108477" />
    <trip id="start2Toend1_49" type="connected" color="1,1,0" from="start2" to="end1" depart="3687.973587" />
    <trip id="start1Toend2_42" type="connected" color="1,1,0" from="start1" to="end2" depart="3692.976537" />
    <trip id="start2Toend2_57" type="connected" color="1,1,0" from="start2" to="end2" depart="3703.546696" />
    <trip id="start2Toend1_50" type="connected" color="1,1,0" from="start2" to="end1" depart="3710.201192" />
    <trip id="start1Toend1_56" type="connected" color="1,1,0" from="start1" to="end1" depart="3716.569952" />
    <trip id="start1Toend1_57" type="connected" color="1,1,0" from="start1" to="end1" depart="3719.127812" />
    <trip id="start1Toend2_43" type="connected" color="1,1,0" from="start1" to="end2" depart="3739.775791" />
    <trip id="start1Toend1_58" type="connected" color="1,1,0" from="start1" to="end1" depart="3776.533399" />
    <trip id="start2Toend2_58" type="connected" color="1,1,0" from="start2" to="end2" depart="3785.232707" />
    <trip id="start1Toend1_59" type="connected" color="1,1,0" from="start1" to="end1" depart="3791.676827" />
    <trip id="start1Toend2_44" type="connected" color="1,1,0" from="start1" to="end2" depart="3834.587477" />
    <trip id="start1Toend1_60" type="connected" color="1,1,0" from="start1" to="end1" depart="3863.013629" />
    <trip id="start1Toend2_45" type="connected" color="1,1,0" from="start1" to="end2" depart="3873.081992" />
    <trip id="start1Toend1_61" type="connected" color="1,1,0" from="start1" to="end1" depart="3877.525073" />
    <trip id="start1Toend2_46" type="connected" color="1,1,0" from="start1" to="end2" depart="3894.643201" />
    <trip id="start2Toend2_59" type="connected" color="1,1,0" from="start2" to="end2" depart="3896.645851" />
    <trip id="start1Toend1_62" type="connected" color="1,1,0" from="start1" to="end1" depart="3901.983376" />
    <trip id="start2Toend1_51" type="connected" color="1,1,0" from="start2" to="end1" depart="3906.694611" />
    <trip id="start2Toend1_52" type="connected" color="1,1,0" from="start2" to="end1" depart="3926.581560" />
    <trip id="start2Toend1_53" type="connected" color="1,1,0" from="start2" to="end1" depart="3963.253686" />
    <trip id="start2Toend1_54" type="connected" color="1,1,0" from="start2" to="end1" depart="3973.222223" />
    <trip id="start1Toend1_63" type="connected" color="1,1,0" from="start1" to="end1" depart="4030.994898" />
    <trip id="start1Toend1_64" type="connected" color="1,1,0" from="start1" to="end1" depart="4039.308844" />
    <trip id="start1Toend2_47" type="connected" color="1,1,0" from="start1" to="end2" depart="4091.343098" />
    <trip id="start2Toend1_55" type="connected" color="1,1,0" from="start2" to="end1" depart="4112.298999" />
    <trip id="start2Toend1_56" type="connected" color="1,1,0" from="start2" to="end1" depart="4123.580145" />
    <trip id="start2Toend2_60" type="connected" color="1,1,0" from="start2" to="end2" depart="4143.570041" />
    <trip id="start2Toend1_57" type="connected" color="1,1,0" from="start2" to="end1" depart="4184.681269" />
    <trip id="start2Toend1_58" type="connected" color="1,1,0" from="start2" to="end1" depart="4192.287884" />
    <trip id="start2Toend2_61" type="connected" color="1,1,0" from="start2" to="end2" depart="4192.629101" />
    <trip id="start2Toend1_59" type="connected" color="1,1,0" from="start2" to="end1" depart="4216.521452" />
    <trip id="start2Toend2_62" type="connected" color="1,1,0" from="start2" to="end2" depart="4226.307278" />
    <trip id="start1Toend1_65" type="connected" color="1,1,0" from="start1" to="end1" depart="4242.680246" />
    <trip id="start2Toend2_63" type="connected" color="1,1,0" from="start2" to="end2" depart="4281.809161" />
    <trip id="start2Toend1_60" type="connected" color="1,1,0" from="start2" to="end1" depart="4288.788855" />
    <trip id="start2Toend2_64" type="connected" color="1,1,0" from="start2" to="end2" depart="4307.876823" />
    <trip id="start1Toend1_66" type="connected" color="1,1,0" from="start1" to="end1" depart="4343.121323" />
    <trip id="start1Toend1_67" type="connected" color="1,1,0" from="start1" to="end1" depart="4353.397407" />
    <trip id="start2Toend2_65" type="connected" color="1,1,0" from="start2" to="end2" depart="4376.296851" />
    <trip id="start1Toend1_68" type="connected" color="1,1,0" from="start1" to="end1" depart="4420.042222" />
    <trip id="start1Toend2_48" type="connected" color="1,1,0" from="start1" to="end2" depart="4472.169363" />
    <trip id="start2Toend2_66" type="connected" color="1,1,0" from="start2" to="end2" depart="4481.012165" />
    <trip id="start1Toend2_49" type="connected" color="1,1,0" from="start1" to="end2" depart="4509.591491" />
    <trip id="start2Toend1_61" type="connected" color="1,1,0" from="start2" to="end1" depart="4514.860620" />
    <trip id="start1Toend2_50" type="connected" color="1,1,0" from="start1" to="end2" depart="4523.189170" />
    <trip id="start2Toend2_67" type="connected" color="1,1,0" from="start2" to="end2" depart="4529.765570" />
    <trip id="start2Toend2_68" type="connected" color="1,1,0" from="start2" to="end2" depart="4548.238332" />
    <trip id="start1Toend2_51" type="connected" color="1,1,0" from="start1" to="end2" depart="4647.943545" />
    <trip id="start1Toend1_69" type="connected" color="1,1,0" from="start1" to="end1" depart="4656.389487" />
    <trip id="start1Toend2_52" type="connected" color="1,1,0" from="start1" to="end2" depart="4666.588481" />
    <trip id="start1Toend2_53" type="connected" color="1,1,0" from="start1" to="end2" depart="4668.954701" />
    <trip id="start2Toend2_69" type="connected" color="1,1,0" from="start2" to="end2" depart="4694.835406" />
    <trip id="start1Toend1_70" type="connected" color="1,1,0" from="start1" to="end1" depart="4728.388088" />
    <trip id="start1Toend1_71" type="connected" color="1,1,0" from="start1" to="end1" depart="4797.976332" />
    <trip id="start1Toend1_72" type="connected" color="1,1,0" from="start1" to="end1" depart="4798.365063" />
    <trip id="start1Toend2_54" type="connected" color="1,1,0" from="start1" to="end2" depart="4818.914926" />
    <trip id="start1Toend1_73" type="connected" color="1,1,0" from="start1" to="end1" depart="4820.679215" />