<?xml version="1.0" encoding="UTF-8"?>

<routes>

	<route id="route0" edges="start1 end1" />
    <route id="route1" edges="start1 end2" />
    <route id="route2" edges="start2 end1" />
    <route id="route3" edges="start2 end2" />


    <vType id="conventional" vClass="passenger" sigma="1" maxSpeed="40.0" color="red" accel="10.0"/>
    <vType id="connected" vClass="passenger" tau="1.3" maxSpeed="28.00" lcCooperative="0.0" color="1,1,0" lcStrategic="1.0" accel="3.0" decel="1.5" emergencyDecel="4.5" lcSpeedGain="0.3" sigma="0.0" lcKeepRight="0.3"/>
    <vType id="connected_pCatchupFollower" vClass="passenger" emergencyDecel="4.5" length="5" tau="0.1" maxSpeed="28.00" color="1,1,0" accel="10.3" decel="1.7" sigma="0.0" minGap="2.0"/>
    <vType id="connected_pCatchup" vClass="passenger" tau="0.1" emergencyDecel="4.5" maxSpeed="28.00" color="0,0.8,0.3" accel="10.3" decel="1.7" sigma="0.0" minGap="2.0"/>
    <vType id="connected_pFollower" vClass="passenger" tau="0.1" maxSpeed="28.00" color="1,1,0" accel="10.3" decel="1.7" sigma="0.0"  minGap="2.0" emergencyDecel="4.5"/>
    <vType id="connected_pLeader" vClass="passenger" length="5" tau="1.3" maxSpeed="28.00" lcCooperative="0.0" color="1,1,0" lcStrategic="1.0" accel="2.0" decel="1.5" emergencyDecel="4.5" lcSpeedGain="0.3" sigma="0.0" lcKeepRight="0.3"/>
    


	
    <trip id="start1Toend1_0" type="connected" color="1,1,0" from="start1" to="end1" depart="0.000000" />
    <trip id="start2Toend1_0" type="connected" color="1,1,0" from="start2" to="end1" depart="0.000000" />
    <trip id="start1Toend2_0" type="connected" color="1,1,0" from="start1" to="end2" depart="0.000000" />
    <trip id="start2Toend2_0" type="connected" color="1,1,0" from="start2" to="end2" depart="0.000000" />
    <trip id="start2Toend2_1" type="connected" color="1,1,0" from="start2" to="end2" depart="62.958740" />
    <trip id="start1Toend2_1" type="connected" color="1,1,0" from="start1" to="end2" depart="79.112684" />
    <trip id="start2Toend1_1" type="connected" color="1,1,0" from="start2" to="end1" depart="133.974770" />
    <trip id="start2Toend1_2" type="connected" color="1,1,0" from="start2" to="end1" depart="159.556197" />
    <trip id="start2Toend1_3" type="connected" color="1,1,0" from="start2" to="end1" depart="215.741215" />
    <trip id="start1Toend2_2" type="connected" color="1,1,0" from="start1" to="end2" depart="239.065932" />
    <trip id="start2Toend2_2" type="connected" color="1,1,0" from="start2" to="end2" depart="249.897180" />
    <trip id="start1Toend1_1" type="connected" color="1,1,0" from="start1" to="end1" depart="291.178991" />
    <trip id="start2Toend1_4" type="connected" color="1,1,0" from="start2" to="end1" depart="310.100904" />
    <trip id="start1Toend1_2" type="connected" color="1,1,0" from="start1" to="end1" depart="323.611172" />
    <trip id="start2Toend1_5" type="connected" color="1,1,0" from="start2" to="end1" depart="324.429264" />
    <trip id="start1Toend2_3" type="connected" color="1,1,0" from="start1" to="end2" depart="330.889272" />
    <trip id="start1Toend1_3" type="connected" color="1,1,0" from="start1" to="end1" depart="332.875703" />
    <trip id="start2Toend1_6" type="connected" color="1,1,0" from="start2" to="end1" depart="404.529942" />
    <trip id="start1Toend1_4" type="connected" color="1,1,0" from="start1" to="end1" depart="414.862252" />
    <trip id="start1Toend1_5" type="connected" color="1,1,0" from="start1" to="end1" depart="430.799788" />
    <trip id="start1Toend1_6" type="connected" color="1,1,0" from="start1" to="end1" depart="451.453613" />
    <trip id="start1Toend2_4" type="connected" color="1,1,0" from="start1" to="end2" depart="452.867996" />
    <trip id="start2Toend1_7" type="connected" color="1,1,0" from="start2" to="end1" depart="455.085380" />
    <trip id="start2Toend2_3" type="connected" color="1,1,0" from="start2" to="end2" depart="470.217130" />
    <trip id="start2Toend1_8" type="connected" color="1,1,0" from="start2" to="end1" depart="501.096614" />
    <trip id="start1Toend1_7" type="connected" color="1,1,0" from="start1" to="end1" depart="533.861558" />
    <trip id="start2Toend2_4" type="connected" color="1,1,0" from="start2" to="end2" depart="550.753245" />
    <trip id="start1Toend1_8" type="connected" color="1,1,0" from="start1" to="end1" depart="585.501054" />
    <trip id="start2Toend2_5" type="connected" color="1,1,0" from="start2" to="end2" depart="641.613693" />
    <trip id="start2Toend1_9" type="connected" color="1,1,0" from="start2" to="end1" depart="674.713159" />
    <trip id="start2Toend1_10" type="connected" color="1,1,0" from="start2" to="end1" depart="717.802089" />
    <trip id="start2Toend2_6" type="connected" color="1,1,0" from="start2" to="end2" depart="725.362023" />
    <trip id="start2Toend2_7" type="connected" color="1,1,0" from="start2" to="end2" depart="739.645316" />
    <trip id="start1Toend2_5" type="connected" color="1,1,0" from="start1" to="end2" depart="785.903705" />
    <trip id="start1Toend2_6" type="connected" color="1,1,0" from="start1" to="end2" depart="796.844423" />
    <trip id="start2Toend1_11" type="connected" color="1,1,0" from="start2" to="end1" depart="821.856163" />
    <trip id="start2Toend1_12" type="connected" color="1,1,0" from="start2" to="end1" depart="858.078274" />
    <trip id="start1Toend1_9" type="connected" color="1,1,0" from="start1" to="end1" depart="881.758455" />
    <trip id="start2Toend1_13" type="connected" color="1,1,0" from="start2" to="end1" depart="916.372167" />
    <trip id="start1Toend1_10" type="connected" color="1,1,0" from="start1" to="end1" depart="920.831572" />
    <trip id="start2Toend2_8" type="connected" color="1,1,0" from="start2" to="end2" depart="923.159255" />
    <trip id="start2Toend1_14" type="connected" color="1,1,0" from="start2" to="end1" depart="934.798104" />
    <trip id="start2Toend2_9" type="connected" color="1,1,0" from="start2" to="end2" depart="935.024457" />
    <trip id="start2Toend2_10" type="connected" color="1,1,0" from="start2" to="end2" depart="978.720119" />
    <trip id="start1Toend1_11" type="connected" color="1,1,0" from="start1" to="end1" depart="1022.116435" />
    <trip id="start2Toend1_15" type="connected" color="1,1,0" from="start2" to="end1" depart="1030.481838" />
    <trip id="start2Toend2_11" type="connected" color="1,1,0" from="start2" to="end2" depart="1041.513318" />
    <trip id="start1Toend2_7" type="connected" color="1,1,0" from="start1" to="end2" depart="1090.858996" />
    <trip id="start1Toend1_12" type="connected" color="1,1,0" from="start1" to="end1" depart="1122.763037" />
    <trip id="start1Toend1_13" type="connected" color="1,1,0" from="start1" to="end1" depart="1147.387950" />
    <trip id="start1Toend2_8" type="connected" color="1,1,0" from="start1" to="end2" depart="1161.592256" />
    <trip id="start1Toend2_9" type="connected" color="1,1,0" from="start1" to="end2" depart="1178.135820" />
    <trip id="start1Toend1_14" type="connected" color="1,1,0" from="start1" to="end1" depart="1285.028645" />
    <trip id="start2Toend1_16" type="connected" color="1,1,0" from="start2" to="end1" depart="1296.390643" />
    <trip id="start2Toend2_12" type="connected" color="1,1,0" from="start2" to="end2" depart="1312.181276" />
    <trip id="start2Toend1_17" type="connected" color="1,1,0" from="start2" to="end1" depart="1359.151548" />
    <trip id="start1Toend1_15" type="connected" color="1,1,0" from="start1" to="end1" depart="1424.360276" />
    <trip id="start1Toend2_10" type="connected" color="1,1,0" from="start1" to="end2" depart="1447.844950" />
    <trip id="start1Toend2_11" type="connected" color="1,1,0" from="start1" to="end2" depart="1483.954860" />
    <trip id="start1Toend1_16" type="connected" color="1,1,0" from="start1" to="end1" depart="1504.114740" />
    <trip id="start1Toend1_17" type="connected" color="1,1,0" from="start1" to="end1" depart="1522.531659" />
    <trip id="start2Toend2_13" type="connected" color="1,1,0" from="start2" to="end2" depart="1554.915284" />
    <trip id="start1Toend2_12" type="connected" color="1,1,0" from="start1" to="end2" depart="1575.295701" />
    <trip id="start1Toend2_13" type="connected" color="1,1,0" from="start1" to="end2" depart="1580.603080" />
    <trip id="start2Toend1_18" type="connected" color="1,1,0" from="start2" to="end1" depart="1585.542676" />
    <trip id="start2Toend2_14" type="connected" color="1,1,0" from="start2" to="end2" depart="1590.989674" />
    <trip id="start1Toend2_14" type="connected" color="1,1,0" from="start1" to="end2" depart="1614.261182" />
    <trip id="start1Toend1_18" type="connected" color="1,1,0" from="start1" to="end1" depart="1615.039511" />
    <trip id="start1Toend2_15" type="connected" color="1,1,0" from="start1" to="end2" depart="1660.942758" />
    <trip id="start1Toend1_19" type="connected" color="1,1,0" from="start1" to="end1" depart="1661.933868" />
    <trip id="start1Toend1_20" type="connected" color="1,1,0" from="start1" to="end1" depart="1665.862354" />
    <trip id="start2Toend1_19" type="connected" color="1,1,0" from="start2" to="end1" depart="1685.867633" />
    <trip id="start1Toend1_21" type="connected" color="1,1,0" from="start1" to="end1" depart="1690.524355" />
    <trip id="start2Toend1_20" type="connected" color="1,1,0" from="start2" to="end1" depart="1729.456614" />
    <trip id="start2Toend1_21" type="connected" color="1,1,0" from="start2" to="end1" depart="1731.049714" />
    <trip id="start1Toend2_16" type="connected" color="1,1,0" from="start1" to="end2" depart="1753.227356" />
    <trip id="start1Toend1_22" type="connected" color="1,1,0" from="start1" to="end1" depart="1787.776187" />
    <trip id="start2Toend2_15" type="connected" color="1,1,0" from="start2" to="end2" depart="1788.423556" />
    <trip id="start2Toend2_16" type="connected" color="1,1,0" from="start2" to="end2" depart="1808.133339" />
    <trip id="start1Toend1_23" type="connected" color="1,1,0" from="start1" to="end1" depart="1817.737042" />
    <trip id="start2Toend2_17" type="connected" color="1,1,0" from="start2" to="end2" depart="1867.074350" />
    <trip id="start2Toend2_18" type="connected" color="1,1,0" from="start2" to="end2" depart="1878.884229" />
    <trip id="start1Toend2_17" type="connected" color="1,1,0" from="start1" to="end2" depart="1880.781930" />
    <trip id="start1Toend1_24" type="connected" color="1,1,0" from="start1" to="end1" depart="1887.927588" />
    <trip id="start1Toend1_25" type="connected" color="1,1,0" from="start1" to="end1" depart="1899.810960" />
    <trip id="start1Toend1_26" type="connected" color="1,1,0" from="start1" to="end1" depart="1920.086367" />
    <trip id="start1Toend2_18" type="connected" color="1,1,0" from="start1" to="end2" depart="1930.766643" />
    <trip id="start2Toend1_22" type="connected" color="1,1,0" from="start2" to="end1" depart="1961.489150" />
    <trip id="start2Toend1_23" type="connected" color="1,1,0" from="start2" to="end1" depart="2021.008670" />
    <trip id="start2Toend1_24" type="connected" color="1,1,0" from="start2" to="end1" depart="2039.341356" />
    <trip id="start2Toend1_25" type="connected" color="1,1,0" from="start2" to="end1" depart="2042.432078" />
    <trip id="start1Toend2_19" type="connected" color="1,1,0" from="start1" to="end2" depart="2051.797253" />
    <trip id="start1Toend2_20" type="connected" color="1,1,0" from="start1" to="end2" depart="2077.447822" />
    <trip id="start2Toend2_19" type="connected" color="1,1,0" from="start2" to="end2" depart="2077.880885" />
    <trip id="start1Toend1_27" type="connected" color="1,1,0" from="start1" to="end1" depart="2079.161203" />
    <trip id="start2Toend1_26" type="connected" color="1,1,0" from="start2" to="end1" depart="2101.998772" />
    <trip id="start1Toend2_21" type="connected" color="1,1,0" from="start1" to="end2" depart="2136.990351" />
    <trip id="start2Toend1_27" type="connected" color="1,1,0" from="start2" to="end1" depart="2158.887863" />
    <trip id="start2Toend1_28" type="connected" color="1,1,0" from="start2" to="end1" depart="2190.655716" />
    <trip id="start1Toend1_28" type="connected" color="1,1,0" from="start1" to="end1" depart="2192.239569" />
    <trip id="start2Toend2_20" type="connected" color="1,1,0" from="start2" to="end2" depart="2231.733930" />
    <trip id="start1Toend2_22" type="connected" color="1,1,0" from="start1" to="end2" depart="2235.280043" />
    <trip id="start2Toend2_21" type="connected" color="1,1,0" from="start2" to="end2" depart="2253.578749" />
    <trip id="start1Toend1_29" type="connected" color="1,1,0" from="start1" to="end1" depart="2336.860203" />
    <trip id="start2Toend1_29" type="connected" color="1,1,0" from="start2" to="end1" depart="2385.220672" />
    <trip id="start1Toend1_30" type="connected" color="1,1,0" from="start1" to="end1" depart="2400.536906" />
    <trip id="start2Toend1_30" type="connected" color="1,1,0" from="start2" to="end1" depart="2402.309403" />
    <trip id="start1Toend1_31" type="connected" color="1,1,0" from="start1" to="end1" depart="2416.889411" />
    <trip id="start2Toend1_31" type="connected" color="1,1,0" from="start2" to="end1" depart="2439.799703" />
    <trip id="start1Toend1_32" type="connected" color="1,1,0" from="start1" to="end1" depart="2448.128064" />
    <trip id="start1Toend1_33" type="connected" color="1,1,0" from="start1" to="end1" depart="2481.253077" />
    <trip id="start2Toend2_22" type="connected" color="1,1,0" from="start2" to="end2" depart="2497.267943" />
    <trip id="start1Toend2_23" type="connected" color="1,1,0" from="start1" to="end2" depart="2507.847003" />
    <trip id="start2Toend1_32" type="connected" color="1,1,0" from="start2" to="end1" depart="2512.549968" />
    <trip id="start2Toend1_33" type="connected" color="1,1,0" from="start2" to="end1" depart="2531.290838" />
    <trip id="start1Toend1_34" type="connected" color="1,1,0" from="start1" to="end1" depart="2539.104753" />
    <trip id="start1Toend2_24" type="connected" color="1,1,0" from="start1" to="end2" depart="2540.445490" />
    <trip id="start1Toend2_25" type="connected" color="1,1,0" from="start1" to="end2" depart="2550.461645" />
    <trip id="start1Toend1_35" type="connected" color="1,1,0" from="start1" to="end1" depart="2577.165675" />
    <trip id="start1Toend1_36" type="connected" color="1,1,0" from="start1" to="end1" depart="2604.185090" />
    <trip id="start1Toend2_26" type="connected" color="1,1,0" from="start1" to="end2" depart="2654.270295" />
    <trip id="start2Toend2_23" type="connected" color="1,1,0" from="start2" to="end2" depart="2658.881794" />
    <trip id="start1Toend1_37" type="connected" color="1,1,0" from="start1" to="end1" depart="2691.301381" />
    <trip id="start1Toend1_38" type="connected" color="1,1,0" from="start1" to="end1" depart="2694.805055" />
    <trip id="start2Toend1_34" type="connected" color="1,1,0" from="start2" to="end1" depart="2703.212045" />
    <trip id="start1Toend1_39" type="connected" color="1,1,0" from="start1" to="end1" depart="2704.938900" />
    <trip id="start2Toend1_35" type="connected" color="1,1,0" from="start2" to="end1" depart="2710.497598" />
    <trip id="start2Toend1_36" type="connected" color="1,1,0" from="start2" to="end1" depart="2717.577575" />
    <trip id="start1Toend1_40" type="connected" color="1,1,0" from="start1" to="end1" depart="2735.136176" />
    <trip id="start1Toend1_41" type="connected" color="1,1,0" from="start1" to="end1" depart="2775.582189" />
    <trip id="start1Toend2_27" type="connected" color="1,1,0" from="start1" to="end2" depart="2798.536524" />
    <trip id="start2Toend1_37" type="connected" color="1,1,0" from="start2" to="end1" depart="2809.168149" />
    <trip id="start1Toend2_28" type="connected" color="1,1,0" from="start1" to="end2" depart="2816.558426" />
    <trip id="start2Toend1_38" type="connected" color="1,1,0" from="start2" to="end1" depart="2856.268741" />
    <trip id="start1Toend1_42" type="connected" color="1,1,0" from="start1" to="end1" depart="2858.517229" />
    <trip id="start2Toend2_24" type="connected" color="1,1,0" from="start2" to="end2" depart="2945.550142" />
    <trip id="start2Toend2_25" type="connected" color="1,1,0" from="start2" to="end2" depart="2973.845642" />
    <trip id="start2Toend1_39" type="connected" color="1,1,0" from="start2" to="end1" depart="3004.613663" />
    <trip id="start2Toend2_26" type="connected" color="1,1,0" from="start2" to="end2" depart="3009.800270" />
    <trip id="start2Toend1_40" type="connected" color="1,1,0" from="start2" to="end1" depart="3043.575591" />
    <trip id="start1Toend2_29" type="connected" color="1,1,0" from="start1" to="end2" depart="3044.072126" />
    <trip id="start1Toend1_43" type="connected" color="1,1,0" from="start1" to="end1" depart="3046.365778" />
    <trip id="start2Toend1_41" type="connected" color="1,1,0" from="start2" to="end1" depart="3052.071245" />
    <trip id="start2Toend2_27" type="connected" color="1,1,0" from="start2" to="end2" depart="3070.684648" />
    <trip id="start2Toend2_28" type="connected" color="1,1,0" from="start2" to="end2" depart="3076.359467" />
    <trip id="start2Toend1_42" type="connected" color="1,1,0" from="start2" to="end1" depart="3101.154503" />
    <trip id="start1Toend2_30" type="connected" color="1,1,0" from="start1" to="end2" depart="3198.667751" />
    <trip id="start2Toend2_29" type="connected" color="1,1,0" from="start2" to="end2" depart="3202.348228" />
    <trip id="start2Toend2_30" type="connected" color="1,1,0" from="start2" to="end2" depart="3207.643625" />
    <trip id="start1Toend2_31" type="connected" color="1,1,0" from="start1" to="end2" depart="3279.630790" />
    <trip id="start1Toend1_44" type="connected" color="1,1,0" from="start1" to="end1" depart="3283.749447" />
    <trip id="start2Toend1_43" type="connected" color="1,1,0" from="start2" to="end1" depart="3365.437259" />
    <trip id="start1Toend1_45" type="connected" color="1,1,0" from="start1" to="end1" depart="3383.954951" />
    <trip id="start1Toend1_46" type="connected" color="1,1,0" from="start1" to="end1" depart="3403.496450" />
    <trip id="start2Toend1_44" type="connected" color="1,1,0" from="start2" to="end1" depart="3403.680560" />
    <trip id="start2Toend2_31" type="connected" color="1,1,0" from="start2" to="end2" depart="3428.466502" />
    <trip id="start1Toend2_32" type="connected" color="1,1,0" from="start1" to="end2" depart="3469.712596" />
    <trip id="start2Toend1_45" type="connected" color="1,1,0" from="start2" to="end1" depart="3492.689605" />
    <trip id="start2Toend2_32" type="connected" color="1,1,0" from="start2" to="end2" depart="3498.507863" />
    <trip id="start1Toend2_33" type="connected" color="1,1,0" from="start1" to="end2" depart="3501.731589" />
    <trip id="start1Toend1_47" type="connected" color="1,1,0" from="start1" to="end1" depart="3544.258440" />
    <trip id="start1Toend2_34" type="connected" color="1,1,0" from="start1" to="end2" depart="3550.360481" />
    <trip id="start2Toend1_46" type="connected" color="1,1,0" from="start2" to="end1" depart="3567.053057" />
    <trip id="start2Toend2_33" type="connected" color="1,1,0" from="start2" to="end2" depart="3574.341320" />
    <trip id="start2Toend1_47" type="connected" color="1,1,0" from="start2" to="end1" depart="3590.286011" />
    <trip id="start1Toend2_35" type="connected" color="1,1,0" from="start1" to="end2" depart="3682.736213" />
    <trip id="start2Toend2_34" type="connected" color="1,1,0" from="start2" to="end2" depart="3692.465306" />
    <trip id="start1Toend1_48" type="connected" color="1,1,0" from="start1" to="end1" depart="3696.434408" />
    <trip id="start2Toend2_35" type="connected" color="1,1,0" from="start2" to="end2" depart="3699.779932" />
    <trip id="start2Toend1_48" type="connected" color="1,1,0" from="start2" to="end1" depart="3719.819440" />
    <trip id="start1Toend1_49" type="connected" color="1,1,0" from="start1" to="end1" depart="3777.414894" />
    <trip id="start1Toend1_50" type="connected" color="1,1,0" from="start1" to="end1" depart="3791.659664" />
    <trip id="start2Toend2_36" type="connected" color="1,1,0" from="start2" to="end2" depart="3801.344276" />
    <trip id="start2Toend1_49" type="connected" color="1,1,0" from="start2" to="end1" depart="3819.229982" />
    <trip id="start1Toend1_51" type="connected" color="1,1,0" from="start1" to="end1" depart="3844.066104" />
    <trip id="start2Toend1_50" type="connected" color="1,1,0" from="start2" to="end1" depart="3874.684851" />
    <trip id="start1Toend2_36" type="connected" color="1,1,0" from="start1" to="end2" depart="3891.469325" />
    <trip id="start2Toend2_37" type="connected" color="1,1,0" from="start2" to="end2" depart="3910.807245" />
    <trip id="start1Toend1_52" type="connected" color="1,1,0" from="start1" to="end1" depart="3924.456649" />
    <trip id="start2Toend1_51" type="connected" color="1,1,0" from="start2" to="end1" depart="3926.530844" />
    <trip id="start1Toend2_37" type="connected" color="1,1,0" from="start1" to="end2" depart="3926.745335" />
    <trip id="start1Toend1_53" type="connected" color="1,1,0" from="start1" to="end1" depart="3959.202271" />
    <trip id="start1Toend2_38" type="connected" color="1,1,0" from="start1" to="end2" depart="3991.774159" />
    <trip id="start1Toend1_54" type="connected" color="1,1,0" from="start1" to="end1" depart="3995.441959" />
    <trip id="start1Toend2_39" type="connected" color="1,1,0" from="start1" to="end2" depart="4019.704040" />
    <trip id="start1Toend1_55" type="connected" color="1,1,0" from="start1" to="end1" depart="4031.264935" />
    <trip id="start2Toend1_52" type="connected" color="1,1,0" from="start2" to="end1" depart="4049.634487" />
    <trip id="start2Toend2_38" type="connected" color="1,1,0" from="start2" to="end2" depart="4058.333883" />
    <trip id="start2Toend2_39" type="connected" color="1,1,0" from="start2" to="end2" depart="4099.390083" />
    <trip id="start1Toend1_56" type="connected" color="1,1,0" from="start1" to="end1" depart="4207.753571" />
    <trip id="start1Toend2_40" type="connected" color="1,1,0" from="start1" to="end2" depart="4232.228286" />
    <trip id="start2Toend1_53" type="connected" color="1,1,0" from="start2" to="end1" depart="4248.244904" />
    <trip id="start1Toend1_57" type="connected" color="1,1,0" from="start1" to="end1" depart="4251.683550" />
    <trip id="start1Toend1_58" type="connected" color="1,1,0" from="start1" to="end1" depart="4271.162802" />
    <trip id="start2Toend1_54" type="connected" color="1,1,0" from="start2" to="end1" depart="4313.043786" />
    <trip id="start1Toend2_41" type="connected" color="1,1,0" from="start1" to="end2" depart="4339.853710" />
    <trip id="start2Toend2_40" type="connected" color="1,1,0" from="start2" to="end2" depart="4342.958811" />
    <trip id="start2Toend2_41" type="connected" color="1,1,0" from="start2" to="end2" depart="4357.372590" />
    <trip id="start2Toend1_55" type="connected" color="1,1,0" from="start2" to="end1" depart="4360.177072" />
    <trip id="start1Toend2_42" type="connected" color="1,1,0" from="start1" to="end2" depart="4372.006975" />
    <trip id="start2Toend1_56" type="connected" color="1,1,0" from="start2" to="end1" depart="4387.559125" />
    <trip id="start1Toend2_43" type="connected" color="1,1,0" from="start1" to="end2" depart="4387.678679" />
    <trip id="start1Toend1_59" type="connected" color="1,1,0" from="start1" to="end1" depart="4432.682203" />
    <trip id="start1Toend2_44" type="connected" color="1,1,0" from="start1" to="end2" depart="4460.871421" />
    <trip id="start1Toend2_45" type="connected" color="1,1,0" from="start1" to="end2" depart="4479.087164" />
    <trip id="start1Toend1_60" type="connected" color="1,1,0" from="start1" to="end1" depart="4488.705547" />
    <trip id="start2Toend1_57" type="connected" color="1,1,0" from="start2" to="end1" depart="4494.832722" />
    <trip id="start1Toend1_61" type="connected" color="1,1,0" from="start1" to="end1" depart="4511.544128" />
    <trip id="start1Toend1_62" type="connected" color="1,1,0" from="start1" to="end1" depart="4522.481207" />
    <trip id="start2Toend1_58" type="connected" color="1,1,0" from="start2" to="end1" depart="4569.125374" />
    <trip id="start1Toend2_46" type="connected" color="1,1,0" from="start1" to="end2" depart="4571.485039" />
    <trip id="start2Toend1_59" type="connected" color="1,1,0" from="start2" to="end1" depart="4647.587418" />
    <trip id="start2Toend2_42" type="connected" color="1,1,0" from="start2" to="end2" depart="4654.931052" />
    <trip id="start1Toend1_63" type="connected" color="1,1,0" from="start1" to="end1" depart="4676.355726" />
    <trip id="start1Toend2_47" type="connected" color="1,1,0" from="start1" to="end2" depart="4683.912226" />
    <trip id="start1Toend2_48" type="connected" color="1,1,0" from="start1" to="end2" depart="4687.687602" />
    <trip id="start2Toend2_43" type="connected" color="1,1,0" from="start2" to="end2" depart="4710.652420" />
    <trip id="start2Toend1_60" type="connected" color="1,1,0" from="start2" to="end1" depart="4724.116487" />
    <trip id="start1Toend1_64" type="connected" color="1,1,0" from="start1" to="end1" depart="4724.333310" />
    <trip id="start1Toend1_65" type="connected" color="1,1,0" from="start1" to="end1" depart="4730.330282" />
    <trip id="start1Toend2_49" type="connected" color="1,1,0" from="start1" to="end2" depart="4734.796792" />
    <trip id="start2Toend2_44" type="connected" color="1,1,0" from="start2" to="end2" depart="4744.992218" />
    <trip id="start2Toend2_45" type="connected" color="1,1,0" from="start2" to="end2" depart="4747.656361" />
    <trip id="start1Toend2_50" type="connected" color="1,1,0" from="start1" to="end2" depart="4754.543206" />
    <trip id="start1Toend2_51" type="connected" color="1,1,0" from="start1" to="end2" depart="4766.929365" />
    <trip id="start1Toend1_66" type="connected" color="1,1,0" from="start1" to="end1" depart="4803.139691" />
    <trip id="start2Toend1_61" type="connected" color="1,1,0" from="start2" to="end1" depart="4854.107035" />
    <trip id="start2Toend1_62" type="connected" color="1,1,0" from="start2" to="end1" depart="4880.147127" />
    <trip id="start1Toend1_67" type="connected" color="1,1,0" from="start1" to="end1" depart="4883.441259" />
    <trip id="start1Toend2_52" type="connected" color="1,1,0" from="start1" to="end2" depart="4891.427385" />
    <trip id="start2Toend2_46" type="connected" color="1,1,0" from="start2" to="end2" depart="4893.845877" />
    <trip id="start1Toend2_53" type="connected" color="1,1,0" from="start1" to="end2" depart="4897.592032" />
    <trip id="start1Toend2_54" type="connected" color="1,1,0" from="start1" to="end2" depart="4919.821148" />
    <trip id="start1Toend1_68" type="connected" color="1,1,0" from="start1" to="end1" depart="4923.963437" />
    <trip id="start1Toend2_55" type="connected" color="1,1,0" from="start1" to="end2" depart="4948.571969" />
    <trip id="start1Toend2_56" type="connected" color="1,1,0" from="start1" to="end2" depart="4961.636634" />
    <trip id="start2Toend2_47" type="connected" color="1,1,0" from="start2" to="end2" depart="5002.855592" />
    <trip id="start2Toend2_48" type="connected" color="1,1,0" from="start2" to="end2" depart="5020.862804" />
    <trip id="start2Toend1_63" type="connected" color="1,1,0" from="start2" to="end1" depart="5022.816558" />
    <trip id="start1Toend1_69" type="connected" color="1,1,0" from="start1" to="end1" depart="5037.013394" />
    <trip id="start2Toend2_49" type="connected" color="1,1,0" from="start2" to="end2" depart="5058.502799" />
    <trip id="start1Toend1_70" type="connected" color="1,1,0" from="start1" to="end1" depart="5076.830192" />
    <trip id="start1Toend2_57" type="connected" color="1,1,0" from="start1" to="end2" depart="5086.812644" />
    <trip id="start2Toend2_50" type="connected" color="1,1,0" from="start2" to="end2" depart="5102.091486" />
    <trip id="start2Toend1_64" type="connected" color="1,1,0" from="start2" to="end1" depart="5133.162991" />
    <trip id="start1Toend2_58" type="connected" color="1,1,0" from="start1" to="end2" depart="5133.999413" />
    <trip id="start2Toend1_65" type="connected" color="1,1,0" from="start2" to="end1" depart="5145.359565" />
    <trip id="start2Toend2_51" type="connected" color="1,1,0" from="start2" to="end2" depart="5147.918807" />
    <trip id="start1Toend1_71" type="connected" color="1,1,0" from="start1" to="end1" depart="5156.213296" />
    <trip id="start1Toend1_72" type="connected" color="1,1,0" from="start1" to="end1" depart="5206.364220" />
    <trip id="start2Toend2_52" type="connected" color="1,1,0" from="start2" to="end2" depart="5221.476503" />
    <trip id="start2Toend1_66" type="connected" color="1,1,0" from="start2" to="end1" depart="5226.149706" />
    <trip id="start2Toend2_53" type="connected" color="1,1,0" from="start2" to="end2" depart="5299.701744" />
    <trip id="start1Toend2_59" type="connected" color="1,1,0" from="start1" to="end2" depart="5313.906338" />
    <trip id="start1Toend1_73" type="connected" color="1,1,0" from="start1" to="end1" depart="5324.884830" />
    <trip id="start1Toend2_60" type="connected" color="1,1,0" from="start1" to="end2" depart="5338.998785" />
    <trip id="start1Toend1_74" type="connected" color="1,1,0" from="start1" to="end1" depart="5374.128025" />
    <trip id="start2Toend2_54" type="connected" color="1,1,0" from="start2" to="end2" depart="5374.247839" />
    <trip id="start2Toend1_67" type="connected" color="1,1,0" from="start2" to="end1" depart="5417.407509" />
    <trip id="start1Toend2_61" type="connected" color="1,1,0" from="start1" to="end2" depart="5451.900864" />
    <trip id="start2Toend2_55" type="connected" color="1,1,0" from="start2" to="end2" depart="5468.966033" />