<?xml version="1.0" encoding="UTF-8"?>

<routes>

	<route id="route0" edges="start1 end1" />
    <route id="route1" edges="start1 end2" />
    <route id="route2" edges="start2 end1" />
    <route id="route3" edges="start2 end2" />


    <vType id="conventional" vClass="passenger" sigma="1" maxSpeed="40.0" color="red" accel="10.0"/>
    <vType id="connected" vClass="passenger" tau="1.3" maxSpeed="28.00" lcCooperative="0.0" color="1,1,0" lcStrategic="1.0" accel="3.0" decel="1.5" emergencyDecel="4.5" lcSpeedGain="0.3" sigma="0.0" lcKeepRight="0.3"/>
    <vType id="connected_pCatchupFollower" vClass="passenger" emergencyDecel="4.5" length="5" tau="0.1" maxSpeed="28.00" color="1,1,0" accel="10.3" decel="1.7" sigma="0.0" minGap="2.0"/>
    <vType id="connected_pCatchup" vClass="passenger" tau="0.1" emergencyDecel="4.5" maxSpeed="28.00" color="0,0.8,0.3" accel="10.3" decel="1.7" sigma="0.0" minGap="2.0"/>
    <vType id="connected_pFollower" vClass="passenger" tau="0.1" maxSpeed="28.00" color="1,1,0" accel="10.3" decel="1.7" sigma="0.0"  minGap="2.0" />
    <vType id="connected_pLeader" vClass="passenger" length="5" tau="1.3" maxSpeed="28.00" lcCooperative="0.0" color="1,1,0" lcStrategic="1.0" accel="2.0" decel="1.5" emergencyDecel="4.5" lcSpeedGain="0.3" sigma="0.0" lcKeepRight="0.3"/>
    


	
    <trip id="start1Toend1_0" type="connected" color="1,1,0" from="start1" to="end1" depart="0.000000" />
    <trip id="start2Toend1_0" type="connected" color="1,1,0" from="start2" to="end1" depart="0.000000" />
    <trip id="start1Toend2_0" type="connected" color="1,1,0" from="start1" to="end2" depart="0.000000" />
    <trip id="start2Toend2_0" type="connected" color="1,1,0" from="start2" to="end2" depart="0.000000" />
    <trip id="start1Toend1_1" type="connected" color="1,1,0" from="start1" to="end1" depart="89.933513" />
    <trip id="start2Toend2_1" type="connected" color="1,1,0" from="start2" to="end2" depart="118.379212" />
    <trip id="start2Toend2_2" type="connected" color="1,1,0" from="start2" to="end2" depart="118.448525" />
    <trip id="start1Toend1_2" type="connected" color="1,1,0" from="start1" to="end1" depart="142.885494" />
    <trip id="start2Toend1_1" type="connected" color="1,1,0" from="start2" to="end1" depart="151.960213" />
    <trip id="start1Toend2_1" type="connected" color="1,1,0" from="start1" to="end2" depart="161.195578" />
    <trip id="start2Toend1_2" type="connected" color="1,1,0" from="start2" to="end1" depart="216.473900" />
    <trip id="start2Toend2_3" type="connected" color="1,1,0" from="start2" to="end2" depart="272.121238" />
    <trip id="start2Toend1_3" type="connected" color="1,1,0" from="start2" to="end1" depart="277.249957" />
    <trip id="start2Toend1_4" type="connected" color="1,1,0" from="start2" to="end1" depart="290.930628" />
    <trip id="start1Toend2_2" type="connected" color="1,1,0" from="start1" to="end2" depart="292.328676" />
    <trip id="start1Toend2_3" type="connected" color="1,1,0" from="start1" to="end2" depart="346.319369" />
    <trip id="start2Toend1_5" type="connected" color="1,1,0" from="start2" to="end1" depart="381.910616" />
    <trip id="start1Toend1_3" type="connected" color="1,1,0" from="start1" to="end1" depart="447.648369" />
    <trip id="start2Toend2_4" type="connected" color="1,1,0" from="start2" to="end2" depart="464.808204" />
    <trip id="start1Toend2_4" type="connected" color="1,1,0" from="start1" to="end2" depart="468.402251" />
    <trip id="start1Toend2_5" type="connected" color="1,1,0" from="start1" to="end2" depart="473.039029" />
    <trip id="start1Toend2_6" type="connected" color="1,1,0" from="start1" to="end2" depart="492.434513" />
    <trip id="start1Toend1_4" type="connected" color="1,1,0" from="start1" to="end1" depart="557.623628" />
    <trip id="start1Toend2_7" type="connected" color="1,1,0" from="start1" to="end2" depart="597.899717" />
    <trip id="start2Toend1_6" type="connected" color="1,1,0" from="start2" to="end1" depart="606.161012" />
    <trip id="start2Toend2_5" type="connected" color="1,1,0" from="start2" to="end2" depart="644.848681" />
    <trip id="start1Toend1_5" type="connected" color="1,1,0" from="start1" to="end1" depart="652.023939" />
    <trip id="start2Toend2_6" type="connected" color="1,1,0" from="start2" to="end2" depart="693.924889" />
    <trip id="start1Toend1_6" type="connected" color="1,1,0" from="start1" to="end1" depart="694.347006" />
    <trip id="start1Toend2_8" type="connected" color="1,1,0" from="start1" to="end2" depart="731.926457" />
    <trip id="start2Toend1_7" type="connected" color="1,1,0" from="start2" to="end1" depart="736.053042" />
    <trip id="start1Toend1_7" type="connected" color="1,1,0" from="start1" to="end1" depart="771.554648" />
    <trip id="start2Toend1_8" type="connected" color="1,1,0" from="start2" to="end1" depart="773.432705" />
    <trip id="start1Toend1_8" type="connected" color="1,1,0" from="start1" to="end1" depart="803.101483" />
    <trip id="start1Toend1_9" type="connected" color="1,1,0" from="start1" to="end1" depart="850.561224" />
    <trip id="start2Toend2_7" type="connected" color="1,1,0" from="start2" to="end2" depart="857.027380" />
    <trip id="start2Toend1_9" type="connected" color="1,1,0" from="start2" to="end1" depart="889.254436" />
    <trip id="start2Toend2_8" type="connected" color="1,1,0" from="start2" to="end2" depart="911.350528" />
    <trip id="start1Toend2_9" type="connected" color="1,1,0" from="start1" to="end2" depart="926.281260" />
    <trip id="start2Toend2_9" type="connected" color="1,1,0" from="start2" to="end2" depart="946.778973" />
    <trip id="start1Toend2_10" type="connected" color="1,1,0" from="start1" to="end2" depart="957.795548" />
    <trip id="start2Toend1_10" type="connected" color="1,1,0" from="start2" to="end1" depart="966.889660" />
    <trip id="start1Toend2_11" type="connected" color="1,1,0" from="start1" to="end2" depart="973.936134" />
    <trip id="start1Toend1_10" type="connected" color="1,1,0" from="start1" to="end1" depart="1011.976994" />
    <trip id="start1Toend2_12" type="connected" color="1,1,0" from="start1" to="end2" depart="1041.475690" />
    <trip id="start1Toend1_11" type="connected" color="1,1,0" from="start1" to="end1" depart="1044.316603" />
    <trip id="start2Toend2_10" type="connected" color="1,1,0" from="start2" to="end2" depart="1075.870686" />
    <trip id="start2Toend2_11" type="connected" color="1,1,0" from="start2" to="end2" depart="1079.749311" />
    <trip id="start1Toend1_12" type="connected" color="1,1,0" from="start1" to="end1" depart="1082.887479" />
    <trip id="start1Toend1_13" type="connected" color="1,1,0" from="start1" to="end1" depart="1098.706605" />
    <trip id="start2Toend2_12" type="connected" color="1,1,0" from="start2" to="end2" depart="1123.954124" />
    <trip id="start1Toend2_13" type="connected" color="1,1,0" from="start1" to="end2" depart="1135.609445" />
    <trip id="start2Toend1_11" type="connected" color="1,1,0" from="start2" to="end1" depart="1137.106193" />
    <trip id="start2Toend2_13" type="connected" color="1,1,0" from="start2" to="end2" depart="1185.107821" />
    <trip id="start2Toend1_12" type="connected" color="1,1,0" from="start2" to="end1" depart="1215.024954" />
    <trip id="start2Toend2_14" type="connected" color="1,1,0" from="start2" to="end2" depart="1216.403254" />
    <trip id="start2Toend1_13" type="connected" color="1,1,0" from="start2" to="end1" depart="1309.505517" />
    <trip id="start1Toend1_14" type="connected" color="1,1,0" from="start1" to="end1" depart="1344.707799" />
    <trip id="start1Toend1_15" type="connected" color="1,1,0" from="start1" to="end1" depart="1433.771851" />
    <trip id="start1Toend1_16" type="connected" color="1,1,0" from="start1" to="end1" depart="1449.103638" />
    <trip id="start1Toend1_17" type="connected" color="1,1,0" from="start1" to="end1" depart="1516.682126" />
    <trip id="start2Toend2_15" type="connected" color="1,1,0" from="start2" to="end2" depart="1526.709418" />
    <trip id="start1Toend2_14" type="connected" color="1,1,0" from="start1" to="end2" depart="1602.913997" />
    <trip id="start2Toend2_16" type="connected" color="1,1,0" from="start2" to="end2" depart="1624.761569" />
    <trip id="start2Toend1_14" type="connected" color="1,1,0" from="start2" to="end1" depart="1628.146091" />
    <trip id="start1Toend1_18" type="connected" color="1,1,0" from="start1" to="end1" depart="1662.559301" />
    <trip id="start1Toend1_19" type="connected" color="1,1,0" from="start1" to="end1" depart="1665.222604" />
    <trip id="start2Toend2_17" type="connected" color="1,1,0" from="start2" to="end2" depart="1697.131866" />
    <trip id="start1Toend1_20" type="connected" color="1,1,0" from="start1" to="end1" depart="1719.776297" />
    <trip id="start1Toend1_21" type="connected" color="1,1,0" from="start1" to="end1" depart="1720.187559" />
    <trip id="start2Toend2_18" type="connected" color="1,1,0" from="start2" to="end2" depart="1725.601782" />
    <trip id="start2Toend2_19" type="connected" color="1,1,0" from="start2" to="end2" depart="1729.721447" />
    <trip id="start2Toend2_20" type="connected" color="1,1,0" from="start2" to="end2" depart="1735.974891" />
    <trip id="start1Toend2_15" type="connected" color="1,1,0" from="start1" to="end2" depart="1754.809863" />
    <trip id="start1Toend1_22" type="connected" color="1,1,0" from="start1" to="end1" depart="1861.725877" />
    <trip id="start2Toend1_15" type="connected" color="1,1,0" from="start2" to="end1" depart="1867.650622" />
    <trip id="start2Toend2_21" type="connected" color="1,1,0" from="start2" to="end2" depart="1869.747446" />
    <trip id="start1Toend1_23" type="connected" color="1,1,0" from="start1" to="end1" depart="1870.394177" />
    <trip id="start2Toend2_22" type="connected" color="1,1,0" from="start2" to="end2" depart="1882.125435" />
    <trip id="start1Toend2_16" type="connected" color="1,1,0" from="start1" to="end2" depart="1888.792429" />
    <trip id="start1Toend2_17" type="connected" color="1,1,0" from="start1" to="end2" depart="1889.864768" />
    <trip id="start2Toend1_16" type="connected" color="1,1,0" from="start2" to="end1" depart="1893.865504" />
    <trip id="start1Toend2_18" type="connected" color="1,1,0" from="start1" to="end2" depart="1910.264243" />
    <trip id="start2Toend2_23" type="connected" color="1,1,0" from="start2" to="end2" depart="1935.587341" />
    <trip id="start1Toend2_19" type="connected" color="1,1,0" from="start1" to="end2" depart="1948.878730" />
    <trip id="start2Toend1_17" type="connected" color="1,1,0" from="start2" to="end1" depart="1976.871378" />
    <trip id="start2Toend2_24" type="connected" color="1,1,0" from="start2" to="end2" depart="2010.928821" />
    <trip id="start1Toend1_24" type="connected" color="1,1,0" from="start1" to="end1" depart="2016.699239" />
    <trip id="start2Toend1_18" type="connected" color="1,1,0" from="start2" to="end1" depart="2028.640873" />
    <trip id="start2Toend2_25" type="connected" color="1,1,0" from="start2" to="end2" depart="2050.636468" />
    <trip id="start2Toend2_26" type="connected" color="1,1,0" from="start2" to="end2" depart="2084.226287" />
    <trip id="start2Toend2_27" type="connected" color="1,1,0" from="start2" to="end2" depart="2086.179546" />
    <trip id="start2Toend1_19" type="connected" color="1,1,0" from="start2" to="end1" depart="2105.247491" />
    <trip id="start2Toend2_28" type="connected" color="1,1,0" from="start2" to="end2" depart="2135.005251" />
    <trip id="start2Toend2_29" type="connected" color="1,1,0" from="start2" to="end2" depart="2135.922210" />
    <trip id="start1Toend1_25" type="connected" color="1,1,0" from="start1" to="end1" depart="2153.153800" />
    <trip id="start1Toend1_26" type="connected" color="1,1,0" from="start1" to="end1" depart="2200.538115" />
    <trip id="start1Toend1_27" type="connected" color="1,1,0" from="start1" to="end1" depart="2215.267274" />
    <trip id="start2Toend1_20" type="connected" color="1,1,0" from="start2" to="end1" depart="2217.240270" />
    <trip id="start1Toend2_20" type="connected" color="1,1,0" from="start1" to="end2" depart="2303.629848" />
    <trip id="start2Toend1_21" type="connected" color="1,1,0" from="start2" to="end1" depart="2304.694621" />
    <trip id="start2Toend1_22" type="connected" color="1,1,0" from="start2" to="end1" depart="2308.956306" />
    <trip id="start1Toend1_28" type="connected" color="1,1,0" from="start1" to="end1" depart="2320.461688" />
    <trip id="start1Toend1_29" type="connected" color="1,1,0" from="start1" to="end1" depart="2367.256599" />
    <trip id="start1Toend1_30" type="connected" color="1,1,0" from="start1" to="end1" depart="2399.680750" />
    <trip id="start1Toend1_31" type="connected" color="1,1,0" from="start1" to="end1" depart="2423.482191" />
    <trip id="start2Toend2_30" type="connected" color="1,1,0" from="start2" to="end2" depart="2449.529246" />
    <trip id="start1Toend2_21" type="connected" color="1,1,0" from="start1" to="end2" depart="2466.322517" />
    <trip id="start2Toend2_31" type="connected" color="1,1,0" from="start2" to="end2" depart="2470.841436" />
    <trip id="start2Toend2_32" type="connected" color="1,1,0" from="start2" to="end2" depart="2471.456708" />
    <trip id="start1Toend1_32" type="connected" color="1,1,0" from="start1" to="end1" depart="2497.648553" />
    <trip id="start2Toend1_23" type="connected" color="1,1,0" from="start2" to="end1" depart="2503.881157" />
    <trip id="start2Toend2_33" type="connected" color="1,1,0" from="start2" to="end2" depart="2528.449690" />
    <trip id="start1Toend1_33" type="connected" color="1,1,0" from="start1" to="end1" depart="2530.968996" />
    <trip id="start2Toend2_34" type="connected" color="1,1,0" from="start2" to="end2" depart="2543.979914" />
    <trip id="start2Toend1_24" type="connected" color="1,1,0" from="start2" to="end1" depart="2557.921395" />
    <trip id="start2Toend1_25" type="connected" color="1,1,0" from="start2" to="end1" depart="2566.729225" />
    <trip id="start1Toend2_22" type="connected" color="1,1,0" from="start1" to="end2" depart="2616.125472" />
    <trip id="start2Toend2_35" type="connected" color="1,1,0" from="start2" to="end2" depart="2662.925739" />
    <trip id="start1Toend2_23" type="connected" color="1,1,0" from="start1" to="end2" depart="2708.719872" />
    <trip id="start2Toend2_36" type="connected" color="1,1,0" from="start2" to="end2" depart="2729.025850" />
    <trip id="start1Toend1_34" type="connected" color="1,1,0" from="start1" to="end1" depart="2747.086932" />
    <trip id="start1Toend2_24" type="connected" color="1,1,0" from="start1" to="end2" depart="2762.086468" />
    <trip id="start1Toend1_35" type="connected" color="1,1,0" from="start1" to="end1" depart="2793.153829" />
    <trip id="start2Toend1_26" type="connected" color="1,1,0" from="start2" to="end1" depart="2814.250950" />
    <trip id="start1Toend2_25" type="connected" color="1,1,0" from="start1" to="end2" depart="2821.546716" />
    <trip id="start2Toend1_27" type="connected" color="1,1,0" from="start2" to="end1" depart="2842.626920" />
    <trip id="start2Toend1_28" type="connected" color="1,1,0" from="start2" to="end1" depart="2850.353400" />
    <trip id="start2Toend1_29" type="connected" color="1,1,0" from="start2" to="end1" depart="2887.294039" />
    <trip id="start2Toend1_30" type="connected" color="1,1,0" from="start2" to="end1" depart="2902.294199" />
    <trip id="start1Toend2_26" type="connected" color="1,1,0" from="start1" to="end2" depart="2907.482106" />
    <trip id="start2Toend2_37" type="connected" color="1,1,0" from="start2" to="end2" depart="2940.654695" />
    <trip id="start1Toend1_36" type="connected" color="1,1,0" from="start1" to="end1" depart="2941.659370" />
    <trip id="start2Toend1_31" type="connected" color="1,1,0" from="start2" to="end1" depart="2960.438402" />
    <trip id="start1Toend2_27" type="connected" color="1,1,0" from="start1" to="end2" depart="2962.332815" />
    <trip id="start2Toend2_38" type="connected" color="1,1,0" from="start2" to="end2" depart="2980.731481" />
    <trip id="start2Toend2_39" type="connected" color="1,1,0" from="start2" to="end2" depart="2988.934222" />
    <trip id="start2Toend2_40" type="connected" color="1,1,0" from="start2" to="end2" depart="3010.036174" />
    <trip id="start2Toend2_41" type="connected" color="1,1,0" from="start2" to="end2" depart="3032.297354" />
    <trip id="start1Toend1_37" type="connected" color="1,1,0" from="start1" to="end1" depart="3061.542641" />
    <trip id="start1Toend2_28" type="connected" color="1,1,0" from="start1" to="end2" depart="3075.697363" />
    <trip id="start1Toend1_38" type="connected" color="1,1,0" from="start1" to="end1" depart="3083.091020" />
    <trip id="start1Toend1_39" type="connected" color="1,1,0" from="start1" to="end1" depart="3123.083900" />
    <trip id="start2Toend1_32" type="connected" color="1,1,0" from="start2" to="end1" depart="3136.867591" />
    <trip id="start2Toend1_33" type="connected" color="1,1,0" from="start2" to="end1" depart="3139.956825" />
    <trip id="start1Toend2_29" type="connected" color="1,1,0" from="start1" to="end2" depart="3144.356643" />
    <trip id="start2Toend2_42" type="connected" color="1,1,0" from="start2" to="end2" depart="3169.329447" />
    <trip id="start2Toend2_43" type="connected" color="1,1,0" from="start2" to="end2" depart="3188.153752" />
    <trip id="start2Toend1_34" type="connected" color="1,1,0" from="start2" to="end1" depart="3189.340290" />
    <trip id="start2Toend1_35" type="connected" color="1,1,0" from="start2" to="end1" depart="3201.120285" />
    <trip id="start2Toend2_44" type="connected" color="1,1,0" from="start2" to="end2" depart="3212.122037" />
    <trip id="start2Toend2_45" type="connected" color="1,1,0" from="start2" to="end2" depart="3213.654264" />
    <trip id="start1Toend1_40" type="connected" color="1,1,0" from="start1" to="end1" depart="3260.557463" />
    <trip id="start2Toend1_36" type="connected" color="1,1,0" from="start2" to="end1" depart="3263.340949" />
    <trip id="start1Toend2_30" type="connected" color="1,1,0" from="start1" to="end2" depart="3272.002397" />
    <trip id="start1Toend2_31" type="connected" color="1,1,0" from="start1" to="end2" depart="3311.452130" />
    <trip id="start1Toend1_41" type="connected" color="1,1,0" from="start1" to="end1" depart="3346.941137" />
    <trip id="start1Toend1_42" type="connected" color="1,1,0" from="start1" to="end1" depart="3347.619098" />
    <trip id="start2Toend2_46" type="connected" color="1,1,0" from="start2" to="end2" depart="3415.879460" />
    <trip id="start2Toend1_37" type="connected" color="1,1,0" from="start2" to="end1" depart="3419.586134" />
    <trip id="start2Toend2_47" type="connected" color="1,1,0" from="start2" to="end2" depart="3434.720364" />
    <trip id="start1Toend1_43" type="connected" color="1,1,0" from="start1" to="end1" depart="3469.875879" />
    <trip id="start1Toend1_44" type="connected" color="1,1,0" from="start1" to="end1" depart="3472.344003" />
    <trip id="start1Toend2_32" type="connected" color="1,1,0" from="start1" to="end2" depart="3488.377718" />
    <trip id="start1Toend1_45" type="connected" color="1,1,0" from="start1" to="end1" depart="3492.469406" />
    <trip id="start1Toend2_33" type="connected" color="1,1,0" from="start1" to="end2" depart="3493.733097" />
    <trip id="start2Toend2_48" type="connected" color="1,1,0" from="start2" to="end2" depart="3507.241997" />
    <trip id="start2Toend2_49" type="connected" color="1,1,0" from="start2" to="end2" depart="3576.854687" />
    <trip id="start2Toend2_50" type="connected" color="1,1,0" from="start2" to="end2" depart="3605.224141" />
    <trip id="start2Toend1_38" type="connected" color="1,1,0" from="start2" to="end1" depart="3605.492059" />
    <trip id="start2Toend2_51" type="connected" color="1,1,0" from="start2" to="end2" depart="3615.150623" />
    <trip id="start1Toend2_34" type="connected" color="1,1,0" from="start1" to="end2" depart="3631.310834" />
    <trip id="start2Toend2_52" type="connected" color="1,1,0" from="start2" to="end2" depart="3640.477531" />
    <trip id="start2Toend1_39" type="connected" color="1,1,0" from="start2" to="end1" depart="3653.568145" />
    <trip id="start1Toend1_46" type="connected" color="1,1,0" from="start1" to="end1" depart="3695.024871" />
    <trip id="start2Toend1_40" type="connected" color="1,1,0" from="start2" to="end1" depart="3725.050045" />
    <trip id="start2Toend1_41" type="connected" color="1,1,0" from="start2" to="end1" depart="3744.227914" />
    <trip id="start2Toend1_42" type="connected" color="1,1,0" from="start2" to="end1" depart="3758.253876" />
    <trip id="start1Toend2_35" type="connected" color="1,1,0" from="start1" to="end2" depart="3783.930068" />
    <trip id="start1Toend1_47" type="connected" color="1,1,0" from="start1" to="end1" depart="3785.129047" />
    <trip id="start2Toend2_53" type="connected" color="1,1,0" from="start2" to="end2" depart="3799.446008" />
    <trip id="start1Toend2_36" type="connected" color="1,1,0" from="start1" to="end2" depart="3809.417421" />
    <trip id="start2Toend1_43" type="connected" color="1,1,0" from="start2" to="end1" depart="3813.272103" />
    <trip id="start1Toend1_48" type="connected" color="1,1,0" from="start1" to="end1" depart="3879.052505" />
    <trip id="start2Toend1_44" type="connected" color="1,1,0" from="start2" to="end1" depart="3915.377261" />
    <trip id="start2Toend2_54" type="connected" color="1,1,0" from="start2" to="end2" depart="3937.210413" />
    <trip id="start1Toend2_37" type="connected" color="1,1,0" from="start1" to="end2" depart="3949.806673" />
    <trip id="start1Toend2_38" type="connected" color="1,1,0" from="start1" to="end2" depart="3983.009247" />
    <trip id="start2Toend1_45" type="connected" color="1,1,0" from="start2" to="end1" depart="3985.385344" />
    <trip id="start2Toend2_55" type="connected" color="1,1,0" from="start2" to="end2" depart="4014.548003" />
    <trip id="start2Toend1_46" type="connected" color="1,1,0" from="start2" to="end1" depart="4018.329759" />
    <trip id="start1Toend2_39" type="connected" color="1,1,0" from="start1" to="end2" depart="4029.125718" />
    <trip id="start2Toend1_47" type="connected" color="1,1,0" from="start2" to="end1" depart="4076.057479" />
    <trip id="start2Toend2_56" type="connected" color="1,1,0" from="start2" to="end2" depart="4084.420595" />
    <trip id="start2Toend2_57" type="connected" color="1,1,0" from="start2" to="end2" depart="4088.068142" />
    <trip id="start1Toend1_49" type="connected" color="1,1,0" from="start1" to="end1" depart="4177.677307" />
    <trip id="start2Toend2_58" type="connected" color="1,1,0" from="start2" to="end2" depart="4200.895910" />
    <trip id="start2Toend2_59" type="connected" color="1,1,0" from="start2" to="end2" depart="4238.232492" />
    <trip id="start2Toend1_48" type="connected" color="1,1,0" from="start2" to="end1" depart="4250.217604" />
    <trip id="start1Toend1_50" type="connected" color="1,1,0" from="start1" to="end1" depart="4292.113622" />
    <trip id="start1Toend1_51" type="connected" color="1,1,0" from="start1" to="end1" depart="4329.781103" />
    <trip id="start2Toend1_49" type="connected" color="1,1,0" from="start2" to="end1" depart="4453.350292" />
    <trip id="start1Toend2_40" type="connected" color="1,1,0" from="start1" to="end2" depart="4484.225865" />
    <trip id="start1Toend1_52" type="connected" color="1,1,0" from="start1" to="end1" depart="4492.742818" />
    <trip id="start1Toend1_53" type="connected" color="1,1,0" from="start1" to="end1" depart="4512.684371" />
    <trip id="start2Toend2_60" type="connected" color="1,1,0" from="start2" to="end2" depart="4515.629764" />
    <trip id="start2Toend1_50" type="connected" color="1,1,0" from="start2" to="end1" depart="4537.689394" />
    <trip id="start1Toend1_54" type="connected" color="1,1,0" from="start1" to="end1" depart="4547.995424" />
    <trip id="start1Toend1_55" type="connected" color="1,1,0" from="start1" to="end1" depart="4619.902991" />
    <trip id="start1Toend2_41" type="connected" color="1,1,0" from="start1" to="end2" depart="4692.933983" />
    <trip id="start2Toend2_61" type="connected" color="1,1,0" from="start2" to="end2" depart="4704.017068" />
    <trip id="start2Toend1_51" type="connected" color="1,1,0" from="start2" to="end1" depart="4704.258061" />
    <trip id="start2Toend1_52" type="connected" color="1,1,0" from="start2" to="end1" depart="4753.209625" />
    <trip id="start2Toend2_62" type="connected" color="1,1,0" from="start2" to="end2" depart="4862.668572" />
    <trip id="start1Toend1_56" type="connected" color="1,1,0" from="start1" to="end1" depart="4875.819275" />
    <trip id="start2Toend2_63" type="connected" color="1,1,0" from="start2" to="end2" depart="4911.797935" />
    <trip id="start1Toend1_57" type="connected" color="1,1,0" from="start1" to="end1" depart="4931.029870" />
    <trip id="start2Toend1_53" type="connected" color="1,1,0" from="start2" to="end1" depart="5010.283759" />
    <trip id="start1Toend1_58" type="connected" color="1,1,0" from="start1" to="end1" depart="5016.594058" />
    <trip id="start2Toend2_64" type="connected" color="1,1,0" from="start2" to="end2" depart="5035.815513" />
    <trip id="start1Toend1_59" type="connected" color="1,1,0" from="start1" to="end1" depart="5073.022342" />
    <trip id="start2Toend2_65" type="connected" color="1,1,0" from="start2" to="end2" depart="5113.289479" />
    <trip id="start1Toend1_60" type="connected" color="1,1,0" from="start1" to="end1" depart="5125.731151" />
    <trip id="start1Toend1_61" type="connected" color="1,1,0" from="start1" to="end1" depart="5149.556412" />
    <trip id="start1Toend1_62" type="connected" color="1,1,0" from="start1" to="end1" depart="5187.323643" />
    <trip id="start1Toend1_63" type="connected" color="1,1,0" from="start1" to="end1" depart="5191.914890" />
    <trip id="start2Toend2_66" type="connected" color="1,1,0" from="start2" to="end2" depart="5259.870087" />
    <trip id="start1Toend2_42" type="connected" color="1,1,0" from="start1" to="end2" depart="5270.384740" />
    <trip id="start1Toend1_64" type="connected" color="1,1,0" from="start1" to="end1" depart="5275.654188" />
    <trip id="start1Toend1_65" type="connected" color="1,1,0" from="start1" to="end1" depart="5295.359170" />
    <trip id="start2Toend2_67" type="connected" color="1,1,0" from="start2" to="end2" depart="5353.814240" />
    <trip id="start2Toend2_68" type="connected" color="1,1,0" from="start2" to="end2" depart="5367.499234" />
    <trip id="start2Toend2_69" type="connected" color="1,1,0" from="start2" to="end2" depart="5478.447896" />
    <trip id="start2Toend1_54" type="connected" color="1,1,0" from="start2" to="end1" depart="5487.086730" />
    <trip id="start1Toend1_66" type="connected" color="1,1,0" from="start1" to="end1" depart="5565.455294" />
    <trip id="start2Toend2_70" type="connected" color="1,1,0" from="start2" to="end2" depart="5568.875801" />
    <trip id="start2Toend1_55" type="connected" color="1,1,0" from="start2" to="end1" depart="5615.362304" />
    <trip id="start2Toend1_56" type="connected" color="1,1,0" from="start2" to="end1" depart="5678.760291" />
    <trip id="start1Toend2_43" type="connected" color="1,1,0" from="start1" to="end2" depart="5688.793008" />
    <trip id="start1Toend1_67" type="connected" color="1,1,0" from="start1" to="end1" depart="5699.256827" />
    <trip id="start1Toend1_68" type="connected" color="1,1,0" from="start1" to="end1" depart="5699.716512" />
    <trip id="start2Toend1_57" type="connected" color="1,1,0" from="start2" to="end1" depart="5700.849618" />
    <trip id="start2Toend2_71" type="connected" color="1,1,0" from="start2" to="end2" depart="5715.581000" />
    <trip id="start2Toend2_72" type="connected" color="1,1,0" from="start2" to="end2" depart="5723.524101" />
    <trip id="start2Toend2_73" type="connected" color="1,1,0" from="start2" to="end2" depart="5729.959628" />
    <trip id="start1Toend2_44" type="connected" color="1,1,0" from="start1" to="end2" depart="5835.424822" />
    <trip id="start1Toend1_69" type="connected" color="1,1,0" from="start1" to="end1" depart="5851.380758" />
    <trip id="start1Toend2_45" type="connected" color="1,1,0" from="start1" to="end2" depart="5913.592600" />
    <trip id="start1Toend2_46" type="connected" color="1,1,0" from="start1" to="end2" depart="5973.696467" />
    <trip id="start1Toend2_47" type="connected" color="1,1,0" from="start1" to="end2" depart="5992.321471" />
    <trip id="start2Toend2_74" type="connected" color="1,1,0" from="start2" to="end2" depart="5996.835385" />
    <trip id="start2Toend1_58" type="connected" color="1,1,0" from="start2" to="end1" depart="6006.744788" />
    <trip id="start2Toend2_75" type="connected" color="1,1,0" from="start2" to="end2" depart="6024.177718" />
    <trip id="start2Toend1_59" type="connected" color="1,1,0" from="start2" to="end1" depart="6039.137809" />
    <trip id="start1Toend1_70" type="connected" color="1,1,0" from="start1" to="end1" depart="6059.186143" />
    <trip id="start1Toend1_71" type="connected" color="1,1,0" from="start1" to="end1" depart="6061.906798" />
    <trip id="start1Toend2_48" type="connected" color="1,1,0" from="start1" to="end2" depart="6063.576245" />
    <trip id="start2Toend1_60" type="connected" color="1,1,0" from="start2" to="end1" depart="6083.945105" />
    <trip id="start2Toend2_76" type="connected" color="1,1,0" from="start2" to="end2" depart="6103.874303" />
    <trip id="start2Toend2_77" type="connected" color="1,1,0" from="start2" to="end2" depart="6107.002502" />
    <trip id="start2Toend2_78" type="connected" color="1,1,0" from="start2" to="end2" depart="6110.972924" />