<?xml version="1.0" encoding="UTF-8"?>

<routes>

	<route id="route0" edges="start1 end1" />
    <route id="route1" edges="start1 end2" />
    <route id="route2" edges="start2 end1" />
    <route id="route3" edges="start2 end2" />


    <vType id="conventional" vClass="passenger" sigma="1" maxSpeed="40.0" color="red" accel="10.0"/>
    <vType id="connected" vClass="passenger" tau="1.3" maxSpeed="28.00" lcCooperative="0.0" color="1,1,0" lcStrategic="1.0" accel="3.0" decel="1.5" emergencyDecel="4.5" lcSpeedGain="0.3" sigma="0.0" lcKeepRight="0.3"/>
    <vType id="connected_pCatchupFollower" vClass="passenger" emergencyDecel="4.5" length="5" tau="0.1" maxSpeed="28.00" color="1,1,0" accel="10.3" decel="1.7" sigma="0.0" minGap="2.0"/>
    <vType id="connected_pCatchup" vClass="passenger" tau="0.1" emergencyDecel="4.5" maxSpeed="28.00" color="0,0.8,0.3" accel="10.3" decel="1.7" sigma="0.0" minGap="2.0"/>
    <vType id="connected_pFollower" vClass="passenger" tau="0.1" maxSpeed="28.00" color="1,1,0" accel="10.3" decel="1.7" sigma="0.0"  minGap="2.0" emergencyDecel="4.5"/>
    <vType id="connected_pLeader" vClass="passenger" length="5" tau="1.3" maxSpeed="28.00" lcCooperative="0.0" color="1,1,0" lcStrategic="1.0" accel="2.0" decel="1.5" emergencyDecel="4.5" lcSpeedGain="0.3" sigma="0.0" lcKeepRight="0.3"/>
    


	
    <trip id="start1Toend1_0" type="connected" color="1,1,0" from="start1" to="end1" depart="0.000000" />
    <trip id="start2Toend1_0" type="connected" color="1,1,0" from="start2" to="end1" depart="0.000000" />
    <trip id="start1Toend2_0" type="connected" color="1,1,0" from="start1" to="end2" depart="0.000000" />
    <trip id="start2Toend2_0" type="connected" color="1,1,0" from="start2" to="end2" depart="0.000000" />
    <trip id="start2Toend1_1" type="connected" color="1,1,0" from="start2" to="end1" depart="6.301477" />
    <trip id="start2Toend1_2" type="connected" color="1,1,0" from="start2" to="end1" depart="9.940010" />
    <trip id="start1Toend2_1" type="connected" color="1,1,0" from="start1" to="end2" depart="12.893392" />
    <trip id="start1Toend1_1" type="connected" color="1,1,0" from="start1" to="end1" depart="16.080555" />
    <trip id="start1Toend1_2" type="connected" color="1,1,0" from="start1" to="end1" depart="18.168383" />
    <trip id="start1Toend1_3" type="connected" color="1,1,0" from="start1" to="end1" depart="37.675786" />
    <trip id="start1Toend1_4" type="connected" color="1,1,0" from="start1" to="end1" depart="39.715022" />
    <trip id="start2Toend2_1" type="connected" color="1,1,0" from="start2" to="end2" depart="62.951990" />
    <trip id="start1Toend1_5" type="connected" color="1,1,0" from="start1" to="end1" depart="69.900408" />
    <trip id="start1Toend1_6" type="connected" color="1,1,0" from="start1" to="end1" depart="119.381579" />
    <trip id="start1Toend2_2" type="connected" color="1,1,0" from="start1" to="end2" depart="133.127846" />
    <trip id="start2Toend1_3" type="connected" color="1,1,0" from="start2" to="end1" depart="144.602182" />
    <trip id="start2Toend1_4" type="connected" color="1,1,0" from="start2" to="end1" depart="154.203769" />
    <trip id="start2Toend2_2" type="connected" color="1,1,0" from="start2" to="end2" depart="181.265727" />
    <trip id="start1Toend1_7" type="connected" color="1,1,0" from="start1" to="end1" depart="191.006963" />
    <trip id="start2Toend2_3" type="connected" color="1,1,0" from="start2" to="end2" depart="200.893767" />
    <trip id="start1Toend1_8" type="connected" color="1,1,0" from="start1" to="end1" depart="224.184982" />
    <trip id="start2Toend1_5" type="connected" color="1,1,0" from="start2" to="end1" depart="240.211850" />
    <trip id="start2Toend1_6" type="connected" color="1,1,0" from="start2" to="end1" depart="284.103517" />
    <trip id="start2Toend1_7" type="connected" color="1,1,0" from="start2" to="end1" depart="299.652000" />
    <trip id="start1Toend2_3" type="connected" color="1,1,0" from="start1" to="end2" depart="310.822348" />
    <trip id="start1Toend2_4" type="connected" color="1,1,0" from="start1" to="end2" depart="325.061244" />
    <trip id="start1Toend2_5" type="connected" color="1,1,0" from="start1" to="end2" depart="332.835661" />
    <trip id="start1Toend1_9" type="connected" color="1,1,0" from="start1" to="end1" depart="337.528681" />
    <trip id="start1Toend1_10" type="connected" color="1,1,0" from="start1" to="end1" depart="346.725898" />
    <trip id="start2Toend2_4" type="connected" color="1,1,0" from="start2" to="end2" depart="347.639927" />
    <trip id="start1Toend1_11" type="connected" color="1,1,0" from="start1" to="end1" depart="348.692732" />
    <trip id="start1Toend1_12" type="connected" color="1,1,0" from="start1" to="end1" depart="375.416676" />
    <trip id="start2Toend1_8" type="connected" color="1,1,0" from="start2" to="end1" depart="390.725544" />
    <trip id="start1Toend2_6" type="connected" color="1,1,0" from="start1" to="end2" depart="411.003687" />
    <trip id="start2Toend2_5" type="connected" color="1,1,0" from="start2" to="end2" depart="431.610513" />
    <trip id="start2Toend1_9" type="connected" color="1,1,0" from="start2" to="end1" depart="451.569281" />
    <trip id="start2Toend1_10" type="connected" color="1,1,0" from="start2" to="end1" depart="460.262446" />
    <trip id="start1Toend2_7" type="connected" color="1,1,0" from="start1" to="end2" depart="471.501819" />
    <trip id="start2Toend2_6" type="connected" color="1,1,0" from="start2" to="end2" depart="480.350705" />
    <trip id="start2Toend1_11" type="connected" color="1,1,0" from="start2" to="end1" depart="489.527381" />
    <trip id="start1Toend1_13" type="connected" color="1,1,0" from="start1" to="end1" depart="517.274365" />
    <trip id="start2Toend1_12" type="connected" color="1,1,0" from="start2" to="end1" depart="517.901225" />
    <trip id="start1Toend2_8" type="connected" color="1,1,0" from="start1" to="end2" depart="531.576345" />
    <trip id="start1Toend2_9" type="connected" color="1,1,0" from="start1" to="end2" depart="532.039524" />
    <trip id="start2Toend1_13" type="connected" color="1,1,0" from="start2" to="end1" depart="538.098712" />
    <trip id="start1Toend1_14" type="connected" color="1,1,0" from="start1" to="end1" depart="553.634286" />
    <trip id="start2Toend2_7" type="connected" color="1,1,0" from="start2" to="end2" depart="569.479185" />
    <trip id="start1Toend2_10" type="connected" color="1,1,0" from="start1" to="end2" depart="574.868668" />
    <trip id="start2Toend1_14" type="connected" color="1,1,0" from="start2" to="end1" depart="586.387447" />
    <trip id="start2Toend1_15" type="connected" color="1,1,0" from="start2" to="end1" depart="590.007207" />
    <trip id="start2Toend1_16" type="connected" color="1,1,0" from="start2" to="end1" depart="601.584579" />
    <trip id="start1Toend1_15" type="connected" color="1,1,0" from="start1" to="end1" depart="611.832434" />
    <trip id="start1Toend2_11" type="connected" color="1,1,0" from="start1" to="end2" depart="645.283127" />
    <trip id="start2Toend1_17" type="connected" color="1,1,0" from="start2" to="end1" depart="649.462671" />
    <trip id="start2Toend2_8" type="connected" color="1,1,0" from="start2" to="end2" depart="657.921232" />
    <trip id="start2Toend2_9" type="connected" color="1,1,0" from="start2" to="end2" depart="658.017867" />
    <trip id="start1Toend2_12" type="connected" color="1,1,0" from="start1" to="end2" depart="666.478080" />
    <trip id="start1Toend1_16" type="connected" color="1,1,0" from="start1" to="end1" depart="683.771362" />
    <trip id="start1Toend1_17" type="connected" color="1,1,0" from="start1" to="end1" depart="689.758134" />
    <trip id="start1Toend1_18" type="connected" color="1,1,0" from="start1" to="end1" depart="692.021386" />
    <trip id="start2Toend1_18" type="connected" color="1,1,0" from="start2" to="end1" depart="749.273684" />
    <trip id="start2Toend1_19" type="connected" color="1,1,0" from="start2" to="end1" depart="753.283463" />
    <trip id="start2Toend2_10" type="connected" color="1,1,0" from="start2" to="end2" depart="767.227111" />
    <trip id="start1Toend2_13" type="connected" color="1,1,0" from="start1" to="end2" depart="775.280165" />
    <trip id="start1Toend2_14" type="connected" color="1,1,0" from="start1" to="end2" depart="785.840185" />
    <trip id="start1Toend2_15" type="connected" color="1,1,0" from="start1" to="end2" depart="791.120004" />
    <trip id="start1Toend1_19" type="connected" color="1,1,0" from="start1" to="end1" depart="793.669518" />
    <trip id="start1Toend1_20" type="connected" color="1,1,0" from="start1" to="end1" depart="820.320302" />
    <trip id="start1Toend1_21" type="connected" color="1,1,0" from="start1" to="end1" depart="823.870202" />
    <trip id="start2Toend1_20" type="connected" color="1,1,0" from="start2" to="end1" depart="838.539563" />
    <trip id="start2Toend1_21" type="connected" color="1,1,0" from="start2" to="end1" depart="867.416854" />
    <trip id="start2Toend1_22" type="connected" color="1,1,0" from="start2" to="end1" depart="868.679700" />
    <trip id="start1Toend2_16" type="connected" color="1,1,0" from="start1" to="end2" depart="869.523609" />
    <trip id="start1Toend1_22" type="connected" color="1,1,0" from="start1" to="end1" depart="873.988733" />
    <trip id="start1Toend2_17" type="connected" color="1,1,0" from="start1" to="end2" depart="882.682052" />
    <trip id="start2Toend1_23" type="connected" color="1,1,0" from="start2" to="end1" depart="887.323749" />
    <trip id="start1Toend1_23" type="connected" color="1,1,0" from="start1" to="end1" depart="898.731664" />
    <trip id="start1Toend1_24" type="connected" color="1,1,0" from="start1" to="end1" depart="904.430296" />
    <trip id="start1Toend1_25" type="connected" color="1,1,0" from="start1" to="end1" depart="913.310200" />
    <trip id="start2Toend2_11" type="connected" color="1,1,0" from="start2" to="end2" depart="917.343806" />
    <trip id="start1Toend2_18" type="connected" color="1,1,0" from="start1" to="end2" depart="933.311138" />
    <trip id="start2Toend2_12" type="connected" color="1,1,0" from="start2" to="end2" depart="941.167463" />
    <trip id="start1Toend1_26" type="connected" color="1,1,0" from="start1" to="end1" depart="951.605590" />
    <trip id="start2Toend2_13" type="connected" color="1,1,0" from="start2" to="end2" depart="953.849180" />
    <trip id="start1Toend2_19" type="connected" color="1,1,0" from="start1" to="end2" depart="957.076136" />
    <trip id="start1Toend1_27" type="connected" color="1,1,0" from="start1" to="end1" depart="961.317612" />
    <trip id="start2Toend2_14" type="connected" color="1,1,0" from="start2" to="end2" depart="971.625223" />
    <trip id="start1Toend1_28" type="connected" color="1,1,0" from="start1" to="end1" depart="971.731435" />
    <trip id="start2Toend1_24" type="connected" color="1,1,0" from="start2" to="end1" depart="1001.718493" />
    <trip id="start2Toend2_15" type="connected" color="1,1,0" from="start2" to="end2" depart="1007.831943" />
    <trip id="start2Toend2_16" type="connected" color="1,1,0" from="start2" to="end2" depart="1019.213468" />
    <trip id="start1Toend2_20" type="connected" color="1,1,0" from="start1" to="end2" depart="1027.428858" />
    <trip id="start1Toend2_21" type="connected" color="1,1,0" from="start1" to="end2" depart="1035.755935" />
    <trip id="start2Toend2_17" type="connected" color="1,1,0" from="start2" to="end2" depart="1036.883079" />
    <trip id="start1Toend2_22" type="connected" color="1,1,0" from="start1" to="end2" depart="1054.526292" />
    <trip id="start1Toend2_23" type="connected" color="1,1,0" from="start1" to="end2" depart="1056.210458" />
    <trip id="start2Toend2_18" type="connected" color="1,1,0" from="start2" to="end2" depart="1062.285255" />
    <trip id="start2Toend1_25" type="connected" color="1,1,0" from="start2" to="end1" depart="1062.930704" />
    <trip id="start2Toend2_19" type="connected" color="1,1,0" from="start2" to="end2" depart="1064.320142" />
    <trip id="start2Toend2_20" type="connected" color="1,1,0" from="start2" to="end2" depart="1084.389315" />
    <trip id="start1Toend1_29" type="connected" color="1,1,0" from="start1" to="end1" depart="1094.114281" />
    <trip id="start2Toend2_21" type="connected" color="1,1,0" from="start2" to="end2" depart="1095.345957" />
    <trip id="start2Toend1_26" type="connected" color="1,1,0" from="start2" to="end1" depart="1097.587336" />
    <trip id="start2Toend1_27" type="connected" color="1,1,0" from="start2" to="end1" depart="1100.563510" />
    <trip id="start2Toend2_22" type="connected" color="1,1,0" from="start2" to="end2" depart="1108.638005" />
    <trip id="start1Toend1_30" type="connected" color="1,1,0" from="start1" to="end1" depart="1111.270331" />
    <trip id="start1Toend1_31" type="connected" color="1,1,0" from="start1" to="end1" depart="1121.769508" />
    <trip id="start2Toend2_23" type="connected" color="1,1,0" from="start2" to="end2" depart="1121.956475" />
    <trip id="start2Toend1_28" type="connected" color="1,1,0" from="start2" to="end1" depart="1128.887777" />
    <trip id="start1Toend1_32" type="connected" color="1,1,0" from="start1" to="end1" depart="1132.978882" />
    <trip id="start2Toend1_29" type="connected" color="1,1,0" from="start2" to="end1" depart="1151.930783" />
    <trip id="start2Toend2_24" type="connected" color="1,1,0" from="start2" to="end2" depart="1159.775357" />
    <trip id="start1Toend1_33" type="connected" color="1,1,0" from="start1" to="end1" depart="1160.079607" />
    <trip id="start1Toend1_34" type="connected" color="1,1,0" from="start1" to="end1" depart="1160.393407" />
    <trip id="start2Toend2_25" type="connected" color="1,1,0" from="start2" to="end2" depart="1177.722487" />
    <trip id="start1Toend1_35" type="connected" color="1,1,0" from="start1" to="end1" depart="1189.283808" />
    <trip id="start2Toend2_26" type="connected" color="1,1,0" from="start2" to="end2" depart="1195.798294" />
    <trip id="start1Toend2_24" type="connected" color="1,1,0" from="start1" to="end2" depart="1228.207143" />
    <trip id="start2Toend2_27" type="connected" color="1,1,0" from="start2" to="end2" depart="1229.056709" />
    <trip id="start2Toend1_30" type="connected" color="1,1,0" from="start2" to="end1" depart="1229.549332" />
    <trip id="start1Toend1_36" type="connected" color="1,1,0" from="start1" to="end1" depart="1233.165463" />
    <trip id="start2Toend1_31" type="connected" color="1,1,0" from="start2" to="end1" depart="1237.413621" />
    <trip id="start1Toend2_25" type="connected" color="1,1,0" from="start1" to="end2" depart="1247.163323" />
    <trip id="start2Toend1_32" type="connected" color="1,1,0" from="start2" to="end1" depart="1249.148783" />
    <trip id="start2Toend2_28" type="connected" color="1,1,0" from="start2" to="end2" depart="1250.800404" />
    <trip id="start2Toend1_33" type="connected" color="1,1,0" from="start2" to="end1" depart="1263.694256" />
    <trip id="start1Toend1_37" type="connected" color="1,1,0" from="start1" to="end1" depart="1269.473314" />
    <trip id="start1Toend2_26" type="connected" color="1,1,0" from="start1" to="end2" depart="1271.447887" />
    <trip id="start1Toend2_27" type="connected" color="1,1,0" from="start1" to="end2" depart="1274.101576" />
    <trip id="start1Toend2_28" type="connected" color="1,1,0" from="start1" to="end2" depart="1312.480274" />
    <trip id="start2Toend2_29" type="connected" color="1,1,0" from="start2" to="end2" depart="1331.920321" />
    <trip id="start1Toend2_29" type="connected" color="1,1,0" from="start1" to="end2" depart="1333.967051" />
    <trip id="start1Toend1_38" type="connected" color="1,1,0" from="start1" to="end1" depart="1360.358133" />
    <trip id="start2Toend2_30" type="connected" color="1,1,0" from="start2" to="end2" depart="1380.353291" />
    <trip id="start2Toend2_31" type="connected" color="1,1,0" from="start2" to="end2" depart="1405.592990" />
    <trip id="start1Toend1_39" type="connected" color="1,1,0" from="start1" to="end1" depart="1407.074965" />
    <trip id="start1Toend2_30" type="connected" color="1,1,0" from="start1" to="end2" depart="1408.719490" />
    <trip id="start1Toend2_31" type="connected" color="1,1,0" from="start1" to="end2" depart="1411.541698" />
    <trip id="start2Toend1_34" type="connected" color="1,1,0" from="start2" to="end1" depart="1428.633913" />
    <trip id="start2Toend1_35" type="connected" color="1,1,0" from="start2" to="end1" depart="1436.404608" />
    <trip id="start2Toend1_36" type="connected" color="1,1,0" from="start2" to="end1" depart="1441.507354" />
    <trip id="start1Toend1_40" type="connected" color="1,1,0" from="start1" to="end1" depart="1451.066209" />
    <trip id="start1Toend1_41" type="connected" color="1,1,0" from="start1" to="end1" depart="1455.044090" />
    <trip id="start2Toend2_32" type="connected" color="1,1,0" from="start2" to="end2" depart="1459.632476" />
    <trip id="start2Toend2_33" type="connected" color="1,1,0" from="start2" to="end2" depart="1465.386627" />
    <trip id="start1Toend1_42" type="connected" color="1,1,0" from="start1" to="end1" depart="1466.589479" />
    <trip id="start1Toend1_43" type="connected" color="1,1,0" from="start1" to="end1" depart="1473.657830" />
    <trip id="start2Toend1_37" type="connected" color="1,1,0" from="start2" to="end1" depart="1497.315596" />
    <trip id="start1Toend1_44" type="connected" color="1,1,0" from="start1" to="end1" depart="1503.121002" />
    <trip id="start2Toend2_34" type="connected" color="1,1,0" from="start2" to="end2" depart="1518.029128" />
    <trip id="start1Toend1_45" type="connected" color="1,1,0" from="start1" to="end1" depart="1526.419121" />
    <trip id="start1Toend1_46" type="connected" color="1,1,0" from="start1" to="end1" depart="1529.526951" />
    <trip id="start1Toend2_32" type="connected" color="1,1,0" from="start1" to="end2" depart="1530.381010" />
    <trip id="start2Toend1_38" type="connected" color="1,1,0" from="start2" to="end1" depart="1536.021388" />
    <trip id="start2Toend2_35" type="connected" color="1,1,0" from="start2" to="end2" depart="1540.637718" />
    <trip id="start2Toend2_36" type="connected" color="1,1,0" from="start2" to="end2" depart="1554.450693" />
    <trip id="start2Toend1_39" type="connected" color="1,1,0" from="start2" to="end1" depart="1557.068478" />
    <trip id="start1Toend2_33" type="connected" color="1,1,0" from="start1" to="end2" depart="1571.154205" />
    <trip id="start1Toend2_34" type="connected" color="1,1,0" from="start1" to="end2" depart="1573.211369" />
    <trip id="start2Toend2_37" type="connected" color="1,1,0" from="start2" to="end2" depart="1580.730027" />
    <trip id="start1Toend2_35" type="connected" color="1,1,0" from="start1" to="end2" depart="1587.839513" />
    <trip id="start1Toend1_47" type="connected" color="1,1,0" from="start1" to="end1" depart="1590.279956" />
    <trip id="start1Toend1_48" type="connected" color="1,1,0" from="start1" to="end1" depart="1595.355238" />
    <trip id="start2Toend1_40" type="connected" color="1,1,0" from="start2" to="end1" depart="1605.661834" />
    <trip id="start2Toend2_38" type="connected" color="1,1,0" from="start2" to="end2" depart="1606.894044" />
    <trip id="start2Toend2_39" type="connected" color="1,1,0" from="start2" to="end2" depart="1645.226948" />
    <trip id="start1Toend1_49" type="connected" color="1,1,0" from="start1" to="end1" depart="1676.604451" />
    <trip id="start2Toend1_41" type="connected" color="1,1,0" from="start2" to="end1" depart="1678.002750" />
    <trip id="start2Toend2_40" type="connected" color="1,1,0" from="start2" to="end2" depart="1702.304399" />
    <trip id="start1Toend2_36" type="connected" color="1,1,0" from="start1" to="end2" depart="1705.317107" />
    <trip id="start1Toend2_37" type="connected" color="1,1,0" from="start1" to="end2" depart="1706.341875" />
    <trip id="start2Toend1_42" type="connected" color="1,1,0" from="start2" to="end1" depart="1713.086718" />
    <trip id="start2Toend1_43" type="connected" color="1,1,0" from="start2" to="end1" depart="1713.314724" />
    <trip id="start2Toend1_44" type="connected" color="1,1,0" from="start2" to="end1" depart="1748.625470" />
    <trip id="start1Toend2_38" type="connected" color="1,1,0" from="start1" to="end2" depart="1754.256895" />
    <trip id="start2Toend2_41" type="connected" color="1,1,0" from="start2" to="end2" depart="1763.666969" />
    <trip id="start1Toend2_39" type="connected" color="1,1,0" from="start1" to="end2" depart="1771.184656" />
    <trip id="start1Toend1_50" type="connected" color="1,1,0" from="start1" to="end1" depart="1774.494972" />
    <trip id="start2Toend1_45" type="connected" color="1,1,0" from="start2" to="end1" depart="1782.735149" />
    <trip id="start2Toend2_42" type="connected" color="1,1,0" from="start2" to="end2" depart="1789.644070" />
    <trip id="start1Toend1_51" type="connected" color="1,1,0" from="start1" to="end1" depart="1792.554482" />
    <trip id="start1Toend2_40" type="connected" color="1,1,0" from="start1" to="end2" depart="1809.407398" />
    <trip id="start2Toend2_43" type="connected" color="1,1,0" from="start2" to="end2" depart="1818.473094" />
    <trip id="start2Toend2_44" type="connected" color="1,1,0" from="start2" to="end2" depart="1819.069900" />
    <trip id="start2Toend2_45" type="connected" color="1,1,0" from="start2" to="end2" depart="1824.015256" />
    <trip id="start1Toend1_52" type="connected" color="1,1,0" from="start1" to="end1" depart="1825.273772" />
    <trip id="start2Toend2_46" type="connected" color="1,1,0" from="start2" to="end2" depart="1832.176304" />
    <trip id="start2Toend1_46" type="connected" color="1,1,0" from="start2" to="end1" depart="1844.549402" />
    <trip id="start1Toend2_41" type="connected" color="1,1,0" from="start1" to="end2" depart="1854.210946" />
    <trip id="start2Toend2_47" type="connected" color="1,1,0" from="start2" to="end2" depart="1856.725605" />
    <trip id="start1Toend1_53" type="connected" color="1,1,0" from="start1" to="end1" depart="1886.896377" />
    <trip id="start2Toend1_47" type="connected" color="1,1,0" from="start2" to="end1" depart="1887.960548" />
    <trip id="start1Toend1_54" type="connected" color="1,1,0" from="start1" to="end1" depart="1904.057505" />
    <trip id="start2Toend1_48" type="connected" color="1,1,0" from="start2" to="end1" depart="1907.269921" />
    <trip id="start1Toend1_55" type="connected" color="1,1,0" from="start1" to="end1" depart="1956.889569" />
    <trip id="start1Toend1_56" type="connected" color="1,1,0" from="start1" to="end1" depart="1964.958352" />
    <trip id="start2Toend1_49" type="connected" color="1,1,0" from="start2" to="end1" depart="1970.775510" />
    <trip id="start2Toend2_48" type="connected" color="1,1,0" from="start2" to="end2" depart="2001.241361" />
    <trip id="start1Toend1_57" type="connected" color="1,1,0" from="start1" to="end1" depart="2010.919893" />
    <trip id="start2Toend1_50" type="connected" color="1,1,0" from="start2" to="end1" depart="2014.091875" />
    <trip id="start1Toend2_42" type="connected" color="1,1,0" from="start1" to="end2" depart="2031.501799" />
    <trip id="start1Toend1_58" type="connected" color="1,1,0" from="start1" to="end1" depart="2075.072268" />
    <trip id="start2Toend2_49" type="connected" color="1,1,0" from="start2" to="end2" depart="2098.300909" />
    <trip id="start1Toend1_59" type="connected" color="1,1,0" from="start1" to="end1" depart="2108.184874" />
    <trip id="start1Toend1_60" type="connected" color="1,1,0" from="start1" to="end1" depart="2113.993396" />
    <trip id="start1Toend2_43" type="connected" color="1,1,0" from="start1" to="end2" depart="2116.118434" />
    <trip id="start1Toend1_61" type="connected" color="1,1,0" from="start1" to="end1" depart="2120.757325" />
    <trip id="start2Toend1_51" type="connected" color="1,1,0" from="start2" to="end1" depart="2123.367522" />
    <trip id="start1Toend2_44" type="connected" color="1,1,0" from="start1" to="end2" depart="2138.010882" />
    <trip id="start2Toend2_50" type="connected" color="1,1,0" from="start2" to="end2" depart="2166.015663" />
    <trip id="start1Toend1_62" type="connected" color="1,1,0" from="start1" to="end1" depart="2172.975391" />
    <trip id="start1Toend2_45" type="connected" color="1,1,0" from="start1" to="end2" depart="2180.445193" />
    <trip id="start2Toend1_52" type="connected" color="1,1,0" from="start2" to="end1" depart="2193.466989" />
    <trip id="start2Toend2_51" type="connected" color="1,1,0" from="start2" to="end2" depart="2198.911614" />
    <trip id="start2Toend2_52" type="connected" color="1,1,0" from="start2" to="end2" depart="2202.879750" />
    <trip id="start2Toend1_53" type="connected" color="1,1,0" from="start2" to="end1" depart="2203.957748" />
    <trip id="start1Toend1_63" type="connected" color="1,1,0" from="start1" to="end1" depart="2219.002014" />
    <trip id="start1Toend2_46" type="connected" color="1,1,0" from="start1" to="end2" depart="2224.544801" />
    <trip id="start2Toend1_54" type="connected" color="1,1,0" from="start2" to="end1" depart="2234.429797" />
    <trip id="start1Toend1_64" type="connected" color="1,1,0" from="start1" to="end1" depart="2238.640301" />
    <trip id="start2Toend1_55" type="connected" color="1,1,0" from="start2" to="end1" depart="2284.534251" />
    <trip id="start2Toend2_53" type="connected" color="1,1,0" from="start2" to="end2" depart="2287.259815" />
    <trip id="start2Toend1_56" type="connected" color="1,1,0" from="start2" to="end1" depart="2288.288760" />
    <trip id="start2Toend2_54" type="connected" color="1,1,0" from="start2" to="end2" depart="2290.556816" />
    <trip id="start2Toend2_55" type="connected" color="1,1,0" from="start2" to="end2" depart="2307.201921" />
    <trip id="start2Toend2_56" type="connected" color="1,1,0" from="start2" to="end2" depart="2315.590756" />
    <trip id="start2Toend1_57" type="connected" color="1,1,0" from="start2" to="end1" depart="2321.930785" />
    <trip id="start2Toend1_58" type="connected" color="1,1,0" from="start2" to="end1" depart="2327.788029" />
    <trip id="start1Toend2_47" type="connected" color="1,1,0" from="start1" to="end2" depart="2336.327511" />
    <trip id="start1Toend2_48" type="connected" color="1,1,0" from="start1" to="end2" depart="2339.321549" />
    <trip id="start2Toend1_59" type="connected" color="1,1,0" from="start2" to="end1" depart="2352.541384" />
    <trip id="start1Toend2_49" type="connected" color="1,1,0" from="start1" to="end2" depart="2360.958830" />
    <trip id="start1Toend1_65" type="connected" color="1,1,0" from="start1" to="end1" depart="2361.821649" />
    <trip id="start1Toend1_66" type="connected" color="1,1,0" from="start1" to="end1" depart="2376.727204" />
    <trip id="start1Toend1_67" type="connected" color="1,1,0" from="start1" to="end1" depart="2384.770176" />
    <trip id="start1Toend1_68" type="connected" color="1,1,0" from="start1" to="end1" depart="2395.125920" />
    <trip id="start2Toend2_57" type="connected" color="1,1,0" from="start2" to="end2" depart="2403.031445" />
    <trip id="start2Toend2_58" type="connected" color="1,1,0" from="start2" to="end2" depart="2411.225396" />
    <trip id="start2Toend1_60" type="connected" color="1,1,0" from="start2" to="end1" depart="2421.323198" />
    <trip id="start2Toend1_61" type="connected" color="1,1,0" from="start2" to="end1" depart="2421.645159" />
    <trip id="start1Toend1_69" type="connected" color="1,1,0" from="start1" to="end1" depart="2425.547050" />
    <trip id="start2Toend2_59" type="connected" color="1,1,0" from="start2" to="end2" depart="2433.773599" />
    <trip id="start2Toend2_60" type="connected" color="1,1,0" from="start2" to="end2" depart="2436.384459" />
    <trip id="start2Toend2_61" type="connected" color="1,1,0" from="start2" to="end2" depart="2442.911216" />
    <trip id="start1Toend1_70" type="connected" color="1,1,0" from="start1" to="end1" depart="2454.993391" />
    <trip id="start2Toend2_62" type="connected" color="1,1,0" from="start2" to="end2" depart="2456.711282" />
    <trip id="start2Toend2_63" type="connected" color="1,1,0" from="start2" to="end2" depart="2465.982812" />
    <trip id="start2Toend1_62" type="connected" color="1,1,0" from="start2" to="end1" depart="2481.168790" />
    <trip id="start1Toend2_50" type="connected" color="1,1,0" from="start1" to="end2" depart="2499.619598" />
    <trip id="start1Toend1_71" type="connected" color="1,1,0" from="start1" to="end1" depart="2503.412197" />
    <trip id="start2Toend1_63" type="connected" color="1,1,0" from="start2" to="end1" depart="2506.523783" />
    <trip id="start2Toend1_64" type="connected" color="1,1,0" from="start2" to="end1" depart="2518.160561" />
    <trip id="start2Toend1_65" type="connected" color="1,1,0" from="start2" to="end1" depart="2524.752698" />
    <trip id="start1Toend1_72" type="connected" color="1,1,0" from="start1" to="end1" depart="2528.471493" />
    <trip id="start2Toend1_66" type="connected" color="1,1,0" from="start2" to="end1" depart="2534.993899" />
    <trip id="start1Toend2_51" type="connected" color="1,1,0" from="start1" to="end2" depart="2541.180489" />
    <trip id="start2Toend2_64" type="connected" color="1,1,0" from="start2" to="end2" depart="2547.796319" />
    <trip id="start2Toend2_65" type="connected" color="1,1,0" from="start2" to="end2" depart="2563.321668" />
    <trip id="start1Toend1_73" type="connected" color="1,1,0" from="start1" to="end1" depart="2563.367823" />
    <trip id="start1Toend1_74" type="connected" color="1,1,0" from="start1" to="end1" depart="2563.769676" />
    <trip id="start1Toend2_52" type="connected" color="1,1,0" from="start1" to="end2" depart="2602.691248" />