<?xml version="1.0" encoding="UTF-8"?>

<!-- generated on 06/09/20 11:46:14 by Eclipse SUMO netedit Version 1.5.0
<configuration xmlns:xsi="http://www.w3.org/2001/XMLSchema-instance" xsi:noNamespaceSchemaLocation="http://sumo.dlr.de/xsd/netconvertConfiguration.xsd">

    <output>
        <output-file value="C:\Users\Francmeister\Desktop\RL_With_SUMO\Nguyen-Dupuis\singleJunction.net.xml"/>
    </output>

    <processing>
        <offset.disable-normalization value="true"/>
    </processing>

    <junctions>
        <no-turnarounds value="true"/>
    </junctions>

    <netedit>
        <additional-files value="C:\Users\Francmeister\Desktop\RL_With_SUMO\Nguyen-Dupuis\singleJunction.add.xml"/>
    </netedit>

    <report>
        <aggregate-warnings value="5"/>
    </report>

</configuration>
-->

<additional xmlns:xsi="http://www.w3.org/2001/XMLSchema-instance" xsi:noNamespaceSchemaLocation="http://sumo.dlr.de/xsd/additional_file.xsd">
    <e1Detector id="e1Detectorlink1" lane="link1_0" pos="4000.00" freq="900.00" file="e1Detector_link1_0_0.xml"/>
    <e1Detector id="e1Detectorlink2" lane="link2_0" pos="4000.00" freq="900.00" file="e1Detector_link2_0_1.xml"/>
    <e1Detector id="e1Detectorlink3" lane="link3_0" pos="4000.00" freq="900.00" file="e1Detector_link3_0_3.xml"/>
    <e1Detector id="e1Detectorlink4" lane="link4_0" pos="4000.00" freq="900.00" file="e1Detector_link4_0_2.xml"/>
</additional>
