<?xml version="1.0" encoding="UTF-8"?>

<!-- generated on 06/09/20 11:58:48 by Eclipse SUMO netedit Version 1.5.0
<configuration xmlns:xsi="http://www.w3.org/2001/XMLSchema-instance" xsi:noNamespaceSchemaLocation="http://sumo.dlr.de/xsd/netconvertConfiguration.xsd">

    <output>
        <output-file value="C:\Users\Francmeister\Desktop\RL_With_SUMO\Nguyen-Dupuis\singleJunction.net.xml"/>
    </output>

    <processing>
        <offset.disable-normalization value="true"/>
    </processing>

    <junctions>
        <no-turnarounds value="true"/>
    </junctions>

    <netedit>
        <additional-files value="C:\Users\Francmeister\Desktop\RL_With_SUMO\Nguyen-Dupuis\singleJunction.add.xml"/>
    </netedit>

    <report>
        <aggregate-warnings value="5"/>
    </report>

</configuration>
-->

<net version="1.3" junctionCornerDetail="5" limitTurnSpeed="5.50" xmlns:xsi="http://www.w3.org/2001/XMLSchema-instance" xsi:noNamespaceSchemaLocation="http://sumo.dlr.de/xsd/net_file.xsd">

    <location netOffset="0.00,0.00" convBoundary="-264.63,-138.41,226.91,291.90" origBoundary="10000000000.00,10000000000.00,-10000000000.00,-10000000000.00" projParameter="!"/>

    <edge id=":gneJ1_0" function="internal">
        <lane id=":gneJ1_0_0" index="0" speed="40" length="0.16" shape="59.42,274.34 59.41,274.29 59.41,274.26 59.41,274.23 59.41,274.18"/>
    </edge>
    <edge id=":gneJ3_0" function="internal">
        <lane id=":gneJ3_0_0" index="0" speed="40" length="0.18" shape="-248.98,-17.60 -248.93,-17.61 -248.89,-17.61 -248.85,-17.61 -248.80,-17.61"/>
    </edge>
    <edge id=":gneJ5_0" function="internal">
        <lane id=":gneJ5_0_0" index="0" speed="40" length="0.10" shape="205.58,-17.61 205.58,-17.61"/>
    </edge>
    <edge id=":gneJ6_0" function="internal">
        <lane id=":gneJ6_0_0" index="0" speed="40" length="0.10" shape="59.41,-120.07 59.41,-120.07"/>
    </edge>
    <edge id=":junction1_0" function="internal">
        <lane id=":junction1_0_0" index="0" speed="40" length="0" shape="59.41,-12.01 59.41,-23.21"/>
    </edge>
    <edge id=":junction1_1" function="internal">
        <lane id=":junction1_1_0" index="0" speed="40" length="0" shape="59.41,-12.01 59.76,-14.46 60.69,-16.01"/>
    </edge>
    <edge id=":junction1_4" function="internal">
        <lane id=":junction1_4_0" index="0" speed="40" length="0" shape="60.69,-16.01 60.81,-16.21 62.56,-17.26 65.01,-17.61"/>
    </edge>
    <edge id=":junction1_2" function="internal">
        <lane id=":junction1_2_0" index="0" speed="40" length="0" shape="53.81,-17.61 56.26,-17.96 58.01,-19.01 59.06,-20.76 59.41,-23.21"/>
    </edge>
    <edge id=":junction1_3" function="internal">
        <lane id=":junction1_3_0" index="0" speed="40" length="0" shape="53.81,-17.61 65.01,-17.61"/>
    </edge>

    <edge id="end1" from="gneJ5" to="gneJ8" priority="-1">
        <lane id="end1_0" index="0" speed="40" length="21.33" shape="205.58,-17.61 226.91,-17.61"/>
    </edge>
    <edge id="end2" from="gneJ6" to="gneJ7" priority="-1">
        <lane id="end2_0" index="0" speed="40" length="18.34" shape="59.41,-120.07 59.41,-138.41"/>
    </edge>
    <edge id="link1" from="gneJ1" to="junction1" priority="-1" length="10000.00">
        <lane id="link1_0" index="0" speed="40" length="5000.00" shape="59.41,274.18 59.41,-12.01"/>
    </edge>
    <edge id="link2" from="gneJ3" to="junction1" priority="-1" length="10000.00">
        <lane id="link2_0" index="0" speed="40" length="5000.00" shape="-248.80,-17.61 53.81,-17.61"/>
    </edge>
    <edge id="link3" from="junction1" to="gneJ6" priority="-1" length="10000.00">
        <lane id="link3_0" index="0" speed="40" length="5000.00" shape="59.41,-23.21 59.41,-120.07"/>
    </edge>
    <edge id="link4" from="junction1" to="gneJ5" priority="-1" length="10000.00">
        <lane id="link4_0" index="0" speed="40" length="5000.00" shape="65.01,-17.61 205.58,-17.61"/>
    </edge>
    <edge id="start1" from="gneJ0" to="gneJ1" priority="-1">
        <lane id="start1_0" index="0" speed="40" length="17.81" shape="61.17,292.06 59.42,274.34"/>
    </edge>
    <edge id="start2" from="gneJ4" to="gneJ3" priority="-1">
        <lane id="start2_0" index="0" speed="40" length="15.94" shape="-264.81,-15.77 -248.98,-17.60"/>
    </edge>

    <junction id="gneJ0" type="dead_end" x="62.76" y="291.90" incLanes="" intLanes="" shape="62.76,291.90 59.58,292.21"/>
    <junction id="gneJ1" type="priority" x="61.01" y="274.18" incLanes="start1_0" intLanes=":gneJ1_0_0" shape="57.83,274.49 61.01,274.18 57.81,274.18 57.81,274.34">
        <request index="0" response="0" foes="0" cont="0"/>
    </junction>
    <junction id="gneJ3" type="priority" x="-248.80" y="-16.01" incLanes="start2_0" intLanes=":gneJ3_0_0" shape="-248.80,-16.01 -248.80,-19.21 -248.94,-19.21 -249.03,-19.20 -249.09,-19.20">
        <request index="0" response="0" foes="0" cont="0"/>
    </junction>
    <junction id="gneJ4" type="dead_end" x="-264.63" y="-14.18" incLanes="" intLanes="" shape="-264.63,-14.18 -265.00,-17.36"/>
    <junction id="gneJ5" type="priority" x="205.58" y="-16.01" incLanes="link4_0" intLanes=":gneJ5_0_0" shape="205.58,-16.01 205.58,-19.21 205.58,-16.01">
        <request index="0" response="0" foes="0" cont="0"/>
    </junction>
    <junction id="gneJ6" type="priority" x="61.01" y="-120.07" incLanes="link3_0" intLanes=":gneJ6_0_0" shape="57.81,-120.07 61.01,-120.07 57.81,-120.07">
        <request index="0" response="0" foes="0" cont="0"/>
    </junction>
    <junction id="gneJ7" type="dead_end" x="61.01" y="-138.41" incLanes="end2_0" intLanes="" shape="57.81,-138.41 61.01,-138.41"/>
    <junction id="gneJ8" type="dead_end" x="226.91" y="-16.01" incLanes="end1_0" intLanes="" shape="226.91,-19.21 226.91,-16.01"/>
    <junction id="junction1" type="priority" x="61.01" y="-16.01" incLanes="link1_0 link2_0" intLanes=":junction1_0_0 :junction1_4_0 :junction1_2_0 :junction1_3_0" shape="57.81,-12.01 61.01,-12.01 61.45,-14.23 62.01,-15.01 62.78,-15.57 63.78,-15.90 65.01,-16.01 65.01,-19.21 62.78,-19.65 62.01,-20.21 61.45,-20.99 61.12,-21.99 61.01,-23.21 57.81,-23.21 57.36,-20.99 56.81,-20.21 56.03,-19.65 55.03,-19.32 53.81,-19.21 53.81,-16.01 56.03,-15.57 56.81,-15.01 57.36,-14.23 57.70,-13.23">
        <request index="0" response="1100" foes="1100" cont="0"/>
        <request index="1" response="1000" foes="1000" cont="1"/>
        <request index="2" response="0000" foes="0001" cont="0"/>
        <request index="3" response="0000" foes="0011" cont="0"/>
    </junction>

    <junction id=":junction1_4_0" type="internal" x="60.69" y="-16.01" incLanes=":junction1_1_0 link2_0" intLanes=":junction1_3_0"/>

    <connection from="link1" to="link3" fromLane="0" toLane="0" via=":junction1_0_0" dir="s" state="m"/>
    <connection from="link1" to="link4" fromLane="0" toLane="0" via=":junction1_1_0" dir="l" state="m"/>
    <connection from="link2" to="link3" fromLane="0" toLane="0" via=":junction1_2_0" dir="r" state="M"/>
    <connection from="link2" to="link4" fromLane="0" toLane="0" via=":junction1_3_0" dir="s" state="M"/>
    <connection from="link3" to="end2" fromLane="0" toLane="0" via=":gneJ6_0_0" dir="s" state="M"/>
    <connection from="link4" to="end1" fromLane="0" toLane="0" via=":gneJ5_0_0" dir="s" state="M"/>
    <connection from="start1" to="link1" fromLane="0" toLane="0" via=":gneJ1_0_0" dir="s" state="M"/>
    <connection from="start2" to="link2" fromLane="0" toLane="0" via=":gneJ3_0_0" dir="s" state="M"/>

    <connection from=":gneJ1_0" to="link1" fromLane="0" toLane="0" dir="s" state="M"/>
    <connection from=":gneJ3_0" to="link2" fromLane="0" toLane="0" dir="s" state="M"/>
    <connection from=":gneJ5_0" to="end1" fromLane="0" toLane="0" dir="s" state="M"/>
    <connection from=":gneJ6_0" to="end2" fromLane="0" toLane="0" dir="s" state="M"/>
    <connection from=":junction1_0" to="link3" fromLane="0" toLane="0" dir="s" state="M"/>
    <connection from=":junction1_1" to="link4" fromLane="0" toLane="0" via=":junction1_4_0" dir="l" state="m"/>
    <connection from=":junction1_4" to="link4" fromLane="0" toLane="0" dir="l" state="M"/>
    <connection from=":junction1_2" to="link3" fromLane="0" toLane="0" dir="r" state="M"/>
    <connection from=":junction1_3" to="link4" fromLane="0" toLane="0" dir="s" state="M"/>

</net>
