<?xml version="1.0" encoding="UTF-8"?>

<routes>

	<route id="route0" edges="start1 end1" />
    <route id="route1" edges="start1 end2" />
    <route id="route2" edges="start2 end1" />
    <route id="route3" edges="start2 end2" />


    <vType id="conventional" vClass="passenger" sigma="1" maxSpeed="40.0" color="red" accel="10.0"/>
    <vType id="connected" vClass="passenger" tau="1.3" maxSpeed="28.00" lcCooperative="0.0" color="1,1,0" lcStrategic="1.0" accel="3.0" decel="1.5" emergencyDecel="4.5" lcSpeedGain="0.3" sigma="0.0" lcKeepRight="0.3"/>
    <vType id="connected_pCatchupFollower" vClass="passenger" emergencyDecel="10.5" length="5" tau="0.1" maxSpeed="28.00" color="1,1,0" accel="10.3" decel="1.7" sigma="0.0" minGap="2.0"/>
    <vType id="connected_pCatchup" vClass="passenger" tau="0.1" emergencyDecel="2.0" maxSpeed="28.00" color="0,0.8,0.3" accel="10.3" decel="1.7" sigma="0.0" minGap="2.0"/>
    <vType id="connected_pFollower" vClass="passenger" tau="0.1" maxSpeed="28.00" color="1,1,0" accel="10.3" decel="1.7" sigma="0.0"  minGap="2.0" />
    <vType id="connected_pLeader" vClass="passenger" length="5" tau="1.3" maxSpeed="28.00" lcCooperative="0.0" color="1,1,0" lcStrategic="1.0" accel="2.0" decel="1.5" emergencyDecel="4.5" lcSpeedGain="0.3" sigma="0.0" lcKeepRight="0.3"/>
    


	
    <trip id="start1Toend1_0" type="connected" color="1,1,0" from="start1" to="end1" depart="0.000000" />
    <trip id="start2Toend1_0" type="connected" color="1,1,0" from="start2" to="end1" depart="0.000000" />
    <trip id="start1Toend2_0" type="connected" color="1,1,0" from="start1" to="end2" depart="0.000000" />
    <trip id="start2Toend2_0" type="connected" color="1,1,0" from="start2" to="end2" depart="0.000000" />
    <trip id="start1Toend1_1" type="connected" color="1,1,0" from="start1" to="end1" depart="7.155178" />
    <trip id="start2Toend1_1" type="connected" color="1,1,0" from="start2" to="end1" depart="8.658615" />
    <trip id="start2Toend1_2" type="connected" color="1,1,0" from="start2" to="end1" depart="20.202837" />
    <trip id="start2Toend2_1" type="connected" color="1,1,0" from="start2" to="end2" depart="72.381646" />
    <trip id="start1Toend1_2" type="connected" color="1,1,0" from="start1" to="end1" depart="104.325770" />
    <trip id="start2Toend2_2" type="connected" color="1,1,0" from="start2" to="end2" depart="133.522410" />
    <trip id="start1Toend2_1" type="connected" color="1,1,0" from="start1" to="end2" depart="134.704952" />
    <trip id="start1Toend2_2" type="connected" color="1,1,0" from="start1" to="end2" depart="184.317061" />
    <trip id="start2Toend1_3" type="connected" color="1,1,0" from="start2" to="end1" depart="202.632656" />
    <trip id="start2Toend2_3" type="connected" color="1,1,0" from="start2" to="end2" depart="241.730854" />
    <trip id="start2Toend2_4" type="connected" color="1,1,0" from="start2" to="end2" depart="262.598572" />
    <trip id="start1Toend2_3" type="connected" color="1,1,0" from="start1" to="end2" depart="279.199038" />
    <trip id="start1Toend1_3" type="connected" color="1,1,0" from="start1" to="end1" depart="344.607831" />
    <trip id="start2Toend1_4" type="connected" color="1,1,0" from="start2" to="end1" depart="390.506715" />
    <trip id="start1Toend1_4" type="connected" color="1,1,0" from="start1" to="end1" depart="396.399154" />
    <trip id="start1Toend1_5" type="connected" color="1,1,0" from="start1" to="end1" depart="422.387044" />
    <trip id="start1Toend2_4" type="connected" color="1,1,0" from="start1" to="end2" depart="426.900217" />
    <trip id="start1Toend2_5" type="connected" color="1,1,0" from="start1" to="end2" depart="438.737451" />
    <trip id="start1Toend1_6" type="connected" color="1,1,0" from="start1" to="end1" depart="441.350675" />
    <trip id="start2Toend2_5" type="connected" color="1,1,0" from="start2" to="end2" depart="442.429178" />
    <trip id="start2Toend1_5" type="connected" color="1,1,0" from="start2" to="end1" depart="474.020121" />
    <trip id="start2Toend2_6" type="connected" color="1,1,0" from="start2" to="end2" depart="514.993153" />
    <trip id="start1Toend2_6" type="connected" color="1,1,0" from="start1" to="end2" depart="592.345411" />
    <trip id="start2Toend1_6" type="connected" color="1,1,0" from="start2" to="end1" depart="643.720249" />
    <trip id="start2Toend2_7" type="connected" color="1,1,0" from="start2" to="end2" depart="678.142463" />
    <trip id="start1Toend2_7" type="connected" color="1,1,0" from="start1" to="end2" depart="705.006589" />
    <trip id="start1Toend1_7" type="connected" color="1,1,0" from="start1" to="end1" depart="750.023022" />
    <trip id="start1Toend2_8" type="connected" color="1,1,0" from="start1" to="end2" depart="795.031978" />
    <trip id="start1Toend1_8" type="connected" color="1,1,0" from="start1" to="end1" depart="807.251075" />
    <trip id="start2Toend1_7" type="connected" color="1,1,0" from="start2" to="end1" depart="828.189804" />
    <trip id="start2Toend2_8" type="connected" color="1,1,0" from="start2" to="end2" depart="839.862646" />
    <trip id="start2Toend1_8" type="connected" color="1,1,0" from="start2" to="end1" depart="877.855744" />
    <trip id="start2Toend2_9" type="connected" color="1,1,0" from="start2" to="end2" depart="883.307978" />
    <trip id="start2Toend1_9" type="connected" color="1,1,0" from="start2" to="end1" depart="883.706814" />
    <trip id="start1Toend1_9" type="connected" color="1,1,0" from="start1" to="end1" depart="892.896408" />
    <trip id="start2Toend1_10" type="connected" color="1,1,0" from="start2" to="end1" depart="896.369963" />
    <trip id="start1Toend1_10" type="connected" color="1,1,0" from="start1" to="end1" depart="936.349869" />
    <trip id="start2Toend1_11" type="connected" color="1,1,0" from="start2" to="end1" depart="969.112166" />
    <trip id="start1Toend2_9" type="connected" color="1,1,0" from="start1" to="end2" depart="1004.135277" />
    <trip id="start1Toend2_10" type="connected" color="1,1,0" from="start1" to="end2" depart="1018.685475" />
    <trip id="start2Toend2_10" type="connected" color="1,1,0" from="start2" to="end2" depart="1025.830333" />
    <trip id="start1Toend1_11" type="connected" color="1,1,0" from="start1" to="end1" depart="1038.028208" />
    <trip id="start2Toend2_11" type="connected" color="1,1,0" from="start2" to="end2" depart="1042.765889" />
    <trip id="start2Toend1_12" type="connected" color="1,1,0" from="start2" to="end1" depart="1093.768265" />
    <trip id="start2Toend2_12" type="connected" color="1,1,0" from="start2" to="end2" depart="1106.552981" />
    <trip id="start2Toend2_13" type="connected" color="1,1,0" from="start2" to="end2" depart="1146.414294" />
    <trip id="start2Toend1_13" type="connected" color="1,1,0" from="start2" to="end1" depart="1166.633522" />
    <trip id="start1Toend1_12" type="connected" color="1,1,0" from="start1" to="end1" depart="1216.560403" />
    <trip id="start2Toend2_14" type="connected" color="1,1,0" from="start2" to="end2" depart="1279.846620" />
    <trip id="start2Toend2_15" type="connected" color="1,1,0" from="start2" to="end2" depart="1281.110374" />
    <trip id="start1Toend1_13" type="connected" color="1,1,0" from="start1" to="end1" depart="1288.811997" />
    <trip id="start1Toend1_14" type="connected" color="1,1,0" from="start1" to="end1" depart="1327.592702" />
    <trip id="start2Toend1_14" type="connected" color="1,1,0" from="start2" to="end1" depart="1389.097650" />
    <trip id="start1Toend2_11" type="connected" color="1,1,0" from="start1" to="end2" depart="1444.403463" />
    <trip id="start2Toend1_15" type="connected" color="1,1,0" from="start2" to="end1" depart="1447.992668" />
    <trip id="start1Toend2_12" type="connected" color="1,1,0" from="start1" to="end2" depart="1469.539852" />
    <trip id="start1Toend2_13" type="connected" color="1,1,0" from="start1" to="end2" depart="1470.057397" />
    <trip id="start2Toend2_16" type="connected" color="1,1,0" from="start2" to="end2" depart="1514.657068" />
    <trip id="start1Toend1_15" type="connected" color="1,1,0" from="start1" to="end1" depart="1519.042796" />
    <trip id="start2Toend1_16" type="connected" color="1,1,0" from="start2" to="end1" depart="1547.368691" />
    <trip id="start2Toend1_17" type="connected" color="1,1,0" from="start2" to="end1" depart="1548.329406" />
    <trip id="start2Toend2_17" type="connected" color="1,1,0" from="start2" to="end2" depart="1571.900445" />
    <trip id="start1Toend1_16" type="connected" color="1,1,0" from="start1" to="end1" depart="1582.926794" />
    <trip id="start1Toend2_14" type="connected" color="1,1,0" from="start1" to="end2" depart="1591.067172" />
    <trip id="start1Toend2_15" type="connected" color="1,1,0" from="start1" to="end2" depart="1593.450484" />
    <trip id="start1Toend2_16" type="connected" color="1,1,0" from="start1" to="end2" depart="1605.479684" />
    <trip id="start1Toend2_17" type="connected" color="1,1,0" from="start1" to="end2" depart="1645.847779" />
    <trip id="start1Toend1_17" type="connected" color="1,1,0" from="start1" to="end1" depart="1645.875964" />
    <trip id="start1Toend2_18" type="connected" color="1,1,0" from="start1" to="end2" depart="1667.925747" />
    <trip id="start1Toend2_19" type="connected" color="1,1,0" from="start1" to="end2" depart="1675.872799" />
    <trip id="start1Toend1_18" type="connected" color="1,1,0" from="start1" to="end1" depart="1684.068870" />
    <trip id="start1Toend2_20" type="connected" color="1,1,0" from="start1" to="end2" depart="1696.825187" />
    <trip id="start1Toend1_19" type="connected" color="1,1,0" from="start1" to="end1" depart="1759.963288" />
    <trip id="start1Toend2_21" type="connected" color="1,1,0" from="start1" to="end2" depart="1805.085698" />
    <trip id="start2Toend2_18" type="connected" color="1,1,0" from="start2" to="end2" depart="1812.541499" />
    <trip id="start1Toend2_22" type="connected" color="1,1,0" from="start1" to="end2" depart="1818.773370" />
    <trip id="start2Toend2_19" type="connected" color="1,1,0" from="start2" to="end2" depart="1832.893215" />
    <trip id="start2Toend2_20" type="connected" color="1,1,0" from="start2" to="end2" depart="1858.607567" />
    <trip id="start2Toend1_18" type="connected" color="1,1,0" from="start2" to="end1" depart="1893.381401" />
    <trip id="start2Toend2_21" type="connected" color="1,1,0" from="start2" to="end2" depart="1908.320475" />
    <trip id="start2Toend2_22" type="connected" color="1,1,0" from="start2" to="end2" depart="1919.711897" />
    <trip id="start2Toend2_23" type="connected" color="1,1,0" from="start2" to="end2" depart="1923.712999" />
    <trip id="start1Toend1_20" type="connected" color="1,1,0" from="start1" to="end1" depart="1964.006128" />
    <trip id="start2Toend1_19" type="connected" color="1,1,0" from="start2" to="end1" depart="1967.045144" />
    <trip id="start1Toend2_23" type="connected" color="1,1,0" from="start1" to="end2" depart="1992.072954" />
    <trip id="start2Toend1_20" type="connected" color="1,1,0" from="start2" to="end1" depart="2063.323437" />
    <trip id="start2Toend2_24" type="connected" color="1,1,0" from="start2" to="end2" depart="2092.468621" />
    <trip id="start1Toend1_21" type="connected" color="1,1,0" from="start1" to="end1" depart="2094.556429" />
    <trip id="start2Toend2_25" type="connected" color="1,1,0" from="start2" to="end2" depart="2108.837379" />
    <trip id="start1Toend2_24" type="connected" color="1,1,0" from="start1" to="end2" depart="2116.506540" />
    <trip id="start2Toend2_26" type="connected" color="1,1,0" from="start2" to="end2" depart="2139.335138" />
    <trip id="start2Toend2_27" type="connected" color="1,1,0" from="start2" to="end2" depart="2152.196742" />
    <trip id="start2Toend1_21" type="connected" color="1,1,0" from="start2" to="end1" depart="2194.544218" />
    <trip id="start2Toend1_22" type="connected" color="1,1,0" from="start2" to="end1" depart="2197.642197" />
    <trip id="start2Toend1_23" type="connected" color="1,1,0" from="start2" to="end1" depart="2205.236432" />
    <trip id="start1Toend2_25" type="connected" color="1,1,0" from="start1" to="end2" depart="2217.543766" />
    <trip id="start2Toend1_24" type="connected" color="1,1,0" from="start2" to="end1" depart="2222.702852" />
    <trip id="start2Toend1_25" type="connected" color="1,1,0" from="start2" to="end1" depart="2242.679503" />
    <trip id="start1Toend2_26" type="connected" color="1,1,0" from="start1" to="end2" depart="2263.310340" />
    <trip id="start2Toend2_28" type="connected" color="1,1,0" from="start2" to="end2" depart="2269.434572" />
    <trip id="start2Toend1_26" type="connected" color="1,1,0" from="start2" to="end1" depart="2287.018713" />
    <trip id="start1Toend2_27" type="connected" color="1,1,0" from="start1" to="end2" depart="2324.261844" />
    <trip id="start2Toend1_27" type="connected" color="1,1,0" from="start2" to="end1" depart="2336.943386" />
    <trip id="start1Toend2_28" type="connected" color="1,1,0" from="start1" to="end2" depart="2351.064254" />
    <trip id="start2Toend1_28" type="connected" color="1,1,0" from="start2" to="end1" depart="2372.665375" />
    <trip id="start2Toend2_29" type="connected" color="1,1,0" from="start2" to="end2" depart="2412.942247" />
    <trip id="start1Toend2_29" type="connected" color="1,1,0" from="start1" to="end2" depart="2497.659739" />
    <trip id="start2Toend1_29" type="connected" color="1,1,0" from="start2" to="end1" depart="2519.654474" />
    <trip id="start1Toend1_22" type="connected" color="1,1,0" from="start1" to="end1" depart="2537.649154" />
    <trip id="start2Toend2_30" type="connected" color="1,1,0" from="start2" to="end2" depart="2545.131527" />
    <trip id="start2Toend2_31" type="connected" color="1,1,0" from="start2" to="end2" depart="2669.903444" />
    <trip id="start2Toend1_30" type="connected" color="1,1,0" from="start2" to="end1" depart="2692.867286" />
    <trip id="start1Toend2_30" type="connected" color="1,1,0" from="start1" to="end2" depart="2694.768157" />
    <trip id="start2Toend1_31" type="connected" color="1,1,0" from="start2" to="end1" depart="2729.833523" />
    <trip id="start1Toend2_31" type="connected" color="1,1,0" from="start1" to="end2" depart="2746.457021" />
    <trip id="start2Toend1_32" type="connected" color="1,1,0" from="start2" to="end1" depart="2756.875635" />
    <trip id="start1Toend2_32" type="connected" color="1,1,0" from="start1" to="end2" depart="2813.176032" />
    <trip id="start2Toend1_33" type="connected" color="1,1,0" from="start2" to="end1" depart="2841.217901" />
    <trip id="start2Toend2_32" type="connected" color="1,1,0" from="start2" to="end2" depart="2863.408968" />
    <trip id="start1Toend2_33" type="connected" color="1,1,0" from="start1" to="end2" depart="2895.770636" />
    <trip id="start2Toend2_33" type="connected" color="1,1,0" from="start2" to="end2" depart="2965.862867" />
    <trip id="start2Toend2_34" type="connected" color="1,1,0" from="start2" to="end2" depart="2980.150015" />
    <trip id="start1Toend2_34" type="connected" color="1,1,0" from="start1" to="end2" depart="3013.163271" />
    <trip id="start1Toend1_23" type="connected" color="1,1,0" from="start1" to="end1" depart="3024.674917" />
    <trip id="start2Toend1_34" type="connected" color="1,1,0" from="start2" to="end1" depart="3028.791532" />
    <trip id="start1Toend1_24" type="connected" color="1,1,0" from="start1" to="end1" depart="3036.171978" />
    <trip id="start2Toend2_35" type="connected" color="1,1,0" from="start2" to="end2" depart="3049.740703" />
    <trip id="start1Toend2_35" type="connected" color="1,1,0" from="start1" to="end2" depart="3078.306896" />
    <trip id="start2Toend2_36" type="connected" color="1,1,0" from="start2" to="end2" depart="3079.562294" />
    <trip id="start1Toend2_36" type="connected" color="1,1,0" from="start1" to="end2" depart="3092.772856" />
    <trip id="start2Toend2_37" type="connected" color="1,1,0" from="start2" to="end2" depart="3108.494075" />
    <trip id="start1Toend2_37" type="connected" color="1,1,0" from="start1" to="end2" depart="3121.058176" />
    <trip id="start1Toend2_38" type="connected" color="1,1,0" from="start1" to="end2" depart="3132.309792" />
    <trip id="start1Toend1_25" type="connected" color="1,1,0" from="start1" to="end1" depart="3202.117992" />
    <trip id="start1Toend1_26" type="connected" color="1,1,0" from="start1" to="end1" depart="3202.646649" />
    <trip id="start1Toend1_27" type="connected" color="1,1,0" from="start1" to="end1" depart="3215.117263" />
    <trip id="start1Toend2_39" type="connected" color="1,1,0" from="start1" to="end2" depart="3218.005453" />
    <trip id="start2Toend1_35" type="connected" color="1,1,0" from="start2" to="end1" depart="3220.014758" />
    <trip id="start2Toend2_38" type="connected" color="1,1,0" from="start2" to="end2" depart="3245.569698" />
    <trip id="start2Toend1_36" type="connected" color="1,1,0" from="start2" to="end1" depart="3255.025599" />
    <trip id="start2Toend2_39" type="connected" color="1,1,0" from="start2" to="end2" depart="3289.510222" />
    <trip id="start2Toend1_37" type="connected" color="1,1,0" from="start2" to="end1" depart="3310.991688" />
    <trip id="start1Toend2_40" type="connected" color="1,1,0" from="start1" to="end2" depart="3325.821714" />
    <trip id="start2Toend2_40" type="connected" color="1,1,0" from="start2" to="end2" depart="3350.698048" />
    <trip id="start2Toend2_41" type="connected" color="1,1,0" from="start2" to="end2" depart="3380.142301" />
    <trip id="start1Toend1_28" type="connected" color="1,1,0" from="start1" to="end1" depart="3382.763287" />
    <trip id="start2Toend2_42" type="connected" color="1,1,0" from="start2" to="end2" depart="3388.150471" />
    <trip id="start2Toend1_38" type="connected" color="1,1,0" from="start2" to="end1" depart="3412.057442" />
    <trip id="start2Toend2_43" type="connected" color="1,1,0" from="start2" to="end2" depart="3451.020833" />
    <trip id="start2Toend2_44" type="connected" color="1,1,0" from="start2" to="end2" depart="3465.041084" />
    <trip id="start2Toend2_45" type="connected" color="1,1,0" from="start2" to="end2" depart="3469.998602" />
    <trip id="start2Toend1_39" type="connected" color="1,1,0" from="start2" to="end1" depart="3539.816142" />
    <trip id="start1Toend2_41" type="connected" color="1,1,0" from="start1" to="end2" depart="3591.962621" />
    <trip id="start1Toend2_42" type="connected" color="1,1,0" from="start1" to="end2" depart="3677.573874" />
    <trip id="start1Toend1_29" type="connected" color="1,1,0" from="start1" to="end1" depart="3693.874787" />
    <trip id="start1Toend2_43" type="connected" color="1,1,0" from="start1" to="end2" depart="3748.812557" />
    <trip id="start1Toend1_30" type="connected" color="1,1,0" from="start1" to="end1" depart="3761.633840" />
    <trip id="start2Toend1_40" type="connected" color="1,1,0" from="start2" to="end1" depart="3778.843478" />
    <trip id="start2Toend1_41" type="connected" color="1,1,0" from="start2" to="end1" depart="3785.402792" />
    <trip id="start1Toend2_44" type="connected" color="1,1,0" from="start1" to="end2" depart="3811.968553" />
    <trip id="start1Toend2_45" type="connected" color="1,1,0" from="start1" to="end2" depart="3827.977931" />
    <trip id="start2Toend1_42" type="connected" color="1,1,0" from="start2" to="end1" depart="3857.563234" />
    <trip id="start1Toend2_46" type="connected" color="1,1,0" from="start1" to="end2" depart="3875.249295" />
    <trip id="start1Toend1_31" type="connected" color="1,1,0" from="start1" to="end1" depart="3888.905435" />
    <trip id="start1Toend2_47" type="connected" color="1,1,0" from="start1" to="end2" depart="3946.949794" />
    <trip id="start2Toend1_43" type="connected" color="1,1,0" from="start2" to="end1" depart="3963.979384" />
    <trip id="start1Toend2_48" type="connected" color="1,1,0" from="start1" to="end2" depart="3972.146372" />
    <trip id="start1Toend1_32" type="connected" color="1,1,0" from="start1" to="end1" depart="3973.494327" />
    <trip id="start2Toend2_46" type="connected" color="1,1,0" from="start2" to="end2" depart="3986.348384" />
    <trip id="start2Toend1_44" type="connected" color="1,1,0" from="start2" to="end1" depart="4002.599318" />
    <trip id="start1Toend1_33" type="connected" color="1,1,0" from="start1" to="end1" depart="4004.141314" />
    <trip id="start1Toend2_49" type="connected" color="1,1,0" from="start1" to="end2" depart="4016.352453" />
    <trip id="start2Toend2_47" type="connected" color="1,1,0" from="start2" to="end2" depart="4069.511056" />
    <trip id="start1Toend1_34" type="connected" color="1,1,0" from="start1" to="end1" depart="4082.492533" />
    <trip id="start2Toend2_48" type="connected" color="1,1,0" from="start2" to="end2" depart="4099.261513" />
    <trip id="start2Toend1_45" type="connected" color="1,1,0" from="start2" to="end1" depart="4110.595241" />
    <trip id="start1Toend2_50" type="connected" color="1,1,0" from="start1" to="end2" depart="4118.957994" />
    <trip id="start1Toend2_51" type="connected" color="1,1,0" from="start1" to="end2" depart="4175.202945" />
    <trip id="start2Toend2_49" type="connected" color="1,1,0" from="start2" to="end2" depart="4178.067896" />
    <trip id="start1Toend2_52" type="connected" color="1,1,0" from="start1" to="end2" depart="4181.685392" />
    <trip id="start2Toend2_50" type="connected" color="1,1,0" from="start2" to="end2" depart="4191.010164" />
    <trip id="start2Toend1_46" type="connected" color="1,1,0" from="start2" to="end1" depart="4204.639961" />
    <trip id="start2Toend2_51" type="connected" color="1,1,0" from="start2" to="end2" depart="4226.390325" />
    <trip id="start1Toend1_35" type="connected" color="1,1,0" from="start1" to="end1" depart="4341.293894" />
    <trip id="start1Toend1_36" type="connected" color="1,1,0" from="start1" to="end1" depart="4343.321021" />
    <trip id="start1Toend2_53" type="connected" color="1,1,0" from="start1" to="end2" depart="4396.309146" />
    <trip id="start2Toend1_47" type="connected" color="1,1,0" from="start2" to="end1" depart="4416.225312" />
    <trip id="start2Toend1_48" type="connected" color="1,1,0" from="start2" to="end1" depart="4469.858740" />
    <trip id="start1Toend2_54" type="connected" color="1,1,0" from="start1" to="end2" depart="4490.866931" />
    <trip id="start1Toend2_55" type="connected" color="1,1,0" from="start1" to="end2" depart="4492.088076" />
    <trip id="start1Toend2_56" type="connected" color="1,1,0" from="start1" to="end2" depart="4529.270050" />
    <trip id="start1Toend2_57" type="connected" color="1,1,0" from="start1" to="end2" depart="4592.677972" />
    <trip id="start2Toend1_49" type="connected" color="1,1,0" from="start2" to="end1" depart="4601.606449" />
    <trip id="start2Toend1_50" type="connected" color="1,1,0" from="start2" to="end1" depart="4631.417992" />
    <trip id="start2Toend2_52" type="connected" color="1,1,0" from="start2" to="end2" depart="4675.836747" />
    <trip id="start2Toend2_53" type="connected" color="1,1,0" from="start2" to="end2" depart="4689.053081" />
    <trip id="start1Toend2_58" type="connected" color="1,1,0" from="start1" to="end2" depart="4702.211760" />
    <trip id="start1Toend2_59" type="connected" color="1,1,0" from="start1" to="end2" depart="4750.939693" />
    <trip id="start2Toend1_51" type="connected" color="1,1,0" from="start2" to="end1" depart="4783.633509" />
    <trip id="start1Toend1_37" type="connected" color="1,1,0" from="start1" to="end1" depart="4801.409887" />
    <trip id="start1Toend2_60" type="connected" color="1,1,0" from="start1" to="end2" depart="4806.106122" />
    <trip id="start1Toend2_61" type="connected" color="1,1,0" from="start1" to="end2" depart="4828.588202" />
    <trip id="start2Toend2_54" type="connected" color="1,1,0" from="start2" to="end2" depart="4837.751847" />
    <trip id="start2Toend2_55" type="connected" color="1,1,0" from="start2" to="end2" depart="4843.866347" />
    <trip id="start2Toend1_52" type="connected" color="1,1,0" from="start2" to="end1" depart="4862.092487" />
    <trip id="start2Toend1_53" type="connected" color="1,1,0" from="start2" to="end1" depart="4891.021301" />
    <trip id="start1Toend1_38" type="connected" color="1,1,0" from="start1" to="end1" depart="4917.366266" />
    <trip id="start1Toend1_39" type="connected" color="1,1,0" from="start1" to="end1" depart="4929.023485" />
    <trip id="start2Toend1_54" type="connected" color="1,1,0" from="start2" to="end1" depart="4930.677508" />
    <trip id="start1Toend2_62" type="connected" color="1,1,0" from="start1" to="end2" depart="4934.504532" />
    <trip id="start2Toend2_56" type="connected" color="1,1,0" from="start2" to="end2" depart="4947.932058" />
    <trip id="start2Toend1_55" type="connected" color="1,1,0" from="start2" to="end1" depart="4968.376298" />
    <trip id="start1Toend1_40" type="connected" color="1,1,0" from="start1" to="end1" depart="4991.679856" />
    <trip id="start2Toend2_57" type="connected" color="1,1,0" from="start2" to="end2" depart="5023.141476" />
    <trip id="start2Toend2_58" type="connected" color="1,1,0" from="start2" to="end2" depart="5048.509433" />
    <trip id="start1Toend2_63" type="connected" color="1,1,0" from="start1" to="end2" depart="5072.638035" />
    <trip id="start1Toend1_41" type="connected" color="1,1,0" from="start1" to="end1" depart="5114.558867" />
    <trip id="start1Toend2_64" type="connected" color="1,1,0" from="start1" to="end2" depart="5140.097038" />
    <trip id="start1Toend1_42" type="connected" color="1,1,0" from="start1" to="end1" depart="5148.470019" />
    <trip id="start2Toend1_56" type="connected" color="1,1,0" from="start2" to="end1" depart="5151.838342" />
    <trip id="start1Toend1_43" type="connected" color="1,1,0" from="start1" to="end1" depart="5213.873298" />
    <trip id="start1Toend1_44" type="connected" color="1,1,0" from="start1" to="end1" depart="5216.645893" />
    <trip id="start2Toend1_57" type="connected" color="1,1,0" from="start2" to="end1" depart="5224.926607" />
    <trip id="start1Toend1_45" type="connected" color="1,1,0" from="start1" to="end1" depart="5227.576739" />
    <trip id="start1Toend1_46" type="connected" color="1,1,0" from="start1" to="end1" depart="5232.789294" />
    <trip id="start1Toend2_65" type="connected" color="1,1,0" from="start1" to="end2" depart="5238.833196" />
    <trip id="start2Toend2_59" type="connected" color="1,1,0" from="start2" to="end2" depart="5307.598677" />
    <trip id="start1Toend2_66" type="connected" color="1,1,0" from="start1" to="end2" depart="5307.920282" />
    <trip id="start1Toend1_47" type="connected" color="1,1,0" from="start1" to="end1" depart="5364.074312" />
    <trip id="start2Toend1_58" type="connected" color="1,1,0" from="start2" to="end1" depart="5511.545046" />
    <trip id="start2Toend2_60" type="connected" color="1,1,0" from="start2" to="end2" depart="5558.119233" />
    <trip id="start1Toend1_48" type="connected" color="1,1,0" from="start1" to="end1" depart="5589.777739" />
    <trip id="start1Toend2_67" type="connected" color="1,1,0" from="start1" to="end2" depart="5604.017057" />
    <trip id="start1Toend1_49" type="connected" color="1,1,0" from="start1" to="end1" depart="5663.074028" />
    <trip id="start1Toend1_50" type="connected" color="1,1,0" from="start1" to="end1" depart="5678.500220" />
    <trip id="start2Toend1_59" type="connected" color="1,1,0" from="start2" to="end1" depart="5686.553967" />
    <trip id="start2Toend1_60" type="connected" color="1,1,0" from="start2" to="end1" depart="5763.135146" />
    <trip id="start1Toend2_68" type="connected" color="1,1,0" from="start1" to="end2" depart="5799.393900" />
    <trip id="start2Toend2_61" type="connected" color="1,1,0" from="start2" to="end2" depart="5812.621019" />
    <trip id="start1Toend2_69" type="connected" color="1,1,0" from="start1" to="end2" depart="5812.894891" />
    <trip id="start2Toend2_62" type="connected" color="1,1,0" from="start2" to="end2" depart="5816.910295" />
    <trip id="start2Toend1_61" type="connected" color="1,1,0" from="start2" to="end1" depart="5824.148577" />
    <trip id="start2Toend1_62" type="connected" color="1,1,0" from="start2" to="end1" depart="5874.438661" />
    <trip id="start1Toend1_51" type="connected" color="1,1,0" from="start1" to="end1" depart="5937.484593" />
    <trip id="start2Toend1_63" type="connected" color="1,1,0" from="start2" to="end1" depart="5965.327489" />
    <trip id="start1Toend2_70" type="connected" color="1,1,0" from="start1" to="end2" depart="5985.036538" />
    <trip id="start1Toend1_52" type="connected" color="1,1,0" from="start1" to="end1" depart="6011.728209" />
    <trip id="start2Toend2_63" type="connected" color="1,1,0" from="start2" to="end2" depart="6013.541739" />
    <trip id="start2Toend2_64" type="connected" color="1,1,0" from="start2" to="end2" depart="6050.201687" />
    <trip id="start1Toend1_53" type="connected" color="1,1,0" from="start1" to="end1" depart="6052.329688" />
    <trip id="start1Toend2_71" type="connected" color="1,1,0" from="start1" to="end2" depart="6062.473754" />
    <trip id="start2Toend1_64" type="connected" color="1,1,0" from="start2" to="end1" depart="6096.133111" />
    <trip id="start2Toend1_65" type="connected" color="1,1,0" from="start2" to="end1" depart="6097.794577" />
    <trip id="start2Toend1_66" type="connected" color="1,1,0" from="start2" to="end1" depart="6136.601188" />
    <trip id="start1Toend1_54" type="connected" color="1,1,0" from="start1" to="end1" depart="6187.710702" />
    <trip id="start1Toend2_72" type="connected" color="1,1,0" from="start1" to="end2" depart="6198.264793" />
    <trip id="start1Toend2_73" type="connected" color="1,1,0" from="start1" to="end2" depart="6224.159718" />