<?xml version="1.0" encoding="UTF-8"?>

<!-- generated on 08/05/20 14:24:50 by Eclipse SUMO netedit Version 1.5.0
<configuration xmlns:xsi="http://www.w3.org/2001/XMLSchema-instance" xsi:noNamespaceSchemaLocation="http://sumo.dlr.de/xsd/netconvertConfiguration.xsd">

    <input>
        <sumo-net-file value="C:\Users\Francmeister\Desktop\rl_with_model_2\Nguyen-Dupuis\siouxFalls.net.xml"/>
    </input>

    <output>
        <output-file value="C:\Users\Francmeister\Desktop\rl_with_model_2\Nguyen-Dupuis\siouxFalls.net.xml"/>
    </output>

    <processing>
        <geometry.min-radius.fix.railways value="false"/>
        <geometry.max-grade.fix value="false"/>
        <offset.disable-normalization value="true"/>
        <lefthand value="false"/>
    </processing>

    <junctions>
        <no-turnarounds value="true"/>
        <junctions.corner-detail value="5"/>
        <junctions.limit-turn-speed value="5.5"/>
        <rectangular-lane-cut value="false"/>
    </junctions>

    <pedestrian>
        <walkingareas value="false"/>
    </pedestrian>

    <report>
        <aggregate-warnings value="5"/>
    </report>

</configuration>
-->

<net version="1.3" junctionCornerDetail="5" limitTurnSpeed="5.50" xmlns:xsi="http://www.w3.org/2001/XMLSchema-instance" xsi:noNamespaceSchemaLocation="http://sumo.dlr.de/xsd/net_file.xsd">

    <location netOffset="0.00,0.00" convBoundary="-220.35,-1539.14,1305.97,338.11" origBoundary="-10000000000.00,-10000000000.00,10000000000.00,10000000000.00" projParameter="!"/>

    <edge id=":junciton5_0" function="internal">
        <lane id=":junciton5_0_0" index="0" speed="5.47" length="9.80" shape="464.33,-136.61 461.21,-136.27 459.79,-135.23 460.09,-133.50 462.11,-131.08"/>
    </edge>
    <edge id=":junciton5_1" function="internal">
        <lane id=":junciton5_1_0" index="0" speed="40.00" length="31.24" shape="464.33,-136.61 433.10,-136.60"/>
    </edge>
    <edge id=":junciton5_2" function="internal">
        <lane id=":junciton5_2_0" index="0" speed="8.99" length="8.83" shape="464.33,-136.61 458.41,-137.16 455.72,-138.21"/>
    </edge>
    <edge id=":junciton5_13" function="internal">
        <lane id=":junciton5_13_0" index="0" speed="8.99" length="9.35" shape="455.72,-138.21 454.18,-138.81 451.64,-141.56 450.79,-145.41"/>
    </edge>
    <edge id=":junciton5_3" function="internal">
        <lane id=":junciton5_3_0" index="0" speed="7.71" length="13.08" shape="453.99,-145.41 454.64,-142.96 456.58,-141.21 459.81,-140.16 464.33,-139.81"/>
    </edge>
    <edge id=":junciton5_4" function="internal">
        <lane id=":junciton5_4_0" index="0" speed="13.24" length="16.87" shape="453.99,-145.41 454.50,-142.07 456.02,-138.57 458.56,-134.91 462.11,-131.08"/>
    </edge>
    <edge id=":junciton5_5" function="internal">
        <lane id=":junciton5_5_0" index="0" speed="10.41" length="24.75" shape="453.99,-145.41 452.68,-141.56 448.77,-138.81 442.24,-137.15 433.10,-136.60"/>
    </edge>
    <edge id=":junciton5_6" function="internal">
        <lane id=":junciton5_6_0" index="0" speed="9.37" length="19.82" shape="433.09,-139.80 440.84,-140.15 446.37,-141.21 449.68,-142.96 450.79,-145.41"/>
    </edge>
    <edge id=":junciton5_7" function="internal">
        <lane id=":junciton5_7_0" index="0" speed="40.00" length="31.24" shape="433.09,-139.80 464.33,-139.81"/>
    </edge>
    <edge id=":junciton5_8" function="internal">
        <lane id=":junciton5_8_0" index="0" speed="18.35" length="9.23" shape="433.09,-139.80 439.23,-138.92 442.18,-138.20"/>
    </edge>
    <edge id=":junciton5_14" function="internal">
        <lane id=":junciton5_14_0" index="0" speed="18.35" length="21.26" shape="442.18,-138.20 448.12,-136.74 456.76,-133.91 462.11,-131.08"/>
    </edge>
    <edge id=":junciton5_9" function="internal">
        <lane id=":junciton5_9_0" index="0" speed="5.70" length="12.59" shape="434.08,-131.93 438.01,-133.97 439.16,-135.43 437.52,-136.31 433.10,-136.60"/>
    </edge>
    <edge id=":junciton5_10" function="internal">
        <lane id=":junciton5_10_0" index="0" speed="11.88" length="22.27" shape="434.08,-131.93 441.39,-135.52 446.61,-138.96 449.75,-142.26 450.79,-145.41"/>
    </edge>
    <edge id=":junciton5_11" function="internal">
        <lane id=":junciton5_11_0" index="0" speed="33.80" length="31.33" shape="434.08,-131.93 440.03,-134.01 449.05,-136.62 458.14,-138.86 464.33,-139.81"/>
    </edge>
    <edge id=":junciton5_12" function="internal">
        <lane id=":junciton5_12_0" index="0" speed="13.52" length="29.74" shape="434.08,-131.93 442.82,-134.94 450.41,-135.81 456.84,-134.52 462.11,-131.08"/>
    </edge>
    <edge id=":junction1_0" function="internal">
        <lane id=":junction1_0_0" index="0" speed="5.71" length="12.67" shape="-176.07,323.26 -180.53,323.56 -182.18,324.43 -181.01,325.89 -177.03,327.92"/>
    </edge>
    <edge id=":junction1_1" function="internal">
        <lane id=":junction1_1_0" index="0" speed="10.44" length="11.43" shape="-176.07,323.26 -185.29,322.72 -187.42,322.19"/>
    </edge>
    <edge id=":junction1_7" function="internal">
        <lane id=":junction1_7_0" index="0" speed="10.44" length="13.47" shape="-187.42,322.19 -191.87,321.08 -195.82,318.33 -197.14,314.48"/>
    </edge>
    <edge id=":junction1_2" function="internal">
        <lane id=":junction1_2_0" index="0" speed="9.40" length="19.98" shape="-193.94,314.48 -192.82,316.93 -189.47,318.67 -183.89,319.72 -176.07,320.06"/>
    </edge>
    <edge id=":junction1_3" function="internal">
        <lane id=":junction1_3_0" index="0" speed="11.88" length="22.41" shape="-193.94,314.48 -192.88,317.62 -189.71,320.91 -184.43,324.35 -177.03,327.92"/>
    </edge>
    <edge id=":junction1_4" function="internal">
        <lane id=":junction1_4_0" index="0" speed="8.58" length="10.16" shape="-201.48,323.12 -199.58,321.68 -198.22,319.77 -197.41,317.36 -197.14,314.48"/>
    </edge>
    <edge id=":junction1_5" function="internal">
        <lane id=":junction1_5_0" index="0" speed="24.36" length="25.69" shape="-201.48,323.12 -196.36,321.62 -189.00,320.69 -181.53,320.20 -176.07,320.06"/>
    </edge>
    <edge id=":junction1_6" function="internal">
        <lane id=":junction1_6_0" index="0" speed="14.85" length="18.59" shape="-201.48,323.12 -197.75,322.21 -192.44,322.71 -185.53,324.61 -183.43,325.43"/>
    </edge>
    <edge id=":junction1_8" function="internal">
        <lane id=":junction1_8_0" index="0" speed="14.85" length="6.87" shape="-183.43,325.43 -177.03,327.92"/>
    </edge>
    <edge id=":junction10_0" function="internal">
        <lane id=":junction10_0_0" index="0" speed="6.02" length="12.34" shape="469.74,-552.92 464.96,-552.57 462.40,-551.54 462.04,-549.83 463.89,-547.42"/>
    </edge>
    <edge id=":junction10_1" function="internal">
        <lane id=":junction10_1_0" index="0" speed="8.61" length="16.52" shape="469.74,-552.92 463.50,-552.58 459.04,-551.57 456.36,-549.88 455.45,-547.51"/>
    </edge>
    <edge id=":junction10_2" function="internal">
        <lane id=":junction10_2_0" index="0" speed="40.00" length="28.00" shape="469.74,-552.92 441.73,-552.94"/>
    </edge>
    <edge id=":junction10_3" function="internal">
        <lane id=":junction10_3_0" index="0" speed="10.12" length="10.19" shape="469.74,-552.92 462.11,-553.62 459.74,-554.52"/>
    </edge>
    <edge id=":junction10_4" function="internal">
        <lane id=":junction10_4_0" index="0" speed="6.36" length="4.50" shape="469.74,-552.92 465.84,-554.18 465.62,-554.52"/>
    </edge>
    <edge id=":junction10_31" function="internal">
        <lane id=":junction10_31_0" index="0" speed="10.12" length="13.09" shape="459.74,-554.52 456.66,-555.71 453.39,-559.20 452.29,-564.08"/>
    </edge>
    <edge id=":junction10_32" function="internal">
        <lane id=":junction10_32_0" index="0" speed="6.36" length="10.94" shape="465.62,-554.52 463.85,-557.21 464.05,-560.83 466.77,-563.88"/>
    </edge>
    <edge id=":junction10_5" function="internal">
        <lane id=":junction10_5_0" index="0" speed="5.52" length="11.16" shape="468.39,-561.11 465.26,-558.93 464.44,-557.37 465.93,-556.43 469.74,-556.12"/>
    </edge>
    <edge id=":junction10_6" function="internal">
        <lane id=":junction10_6_0" index="0" speed="8.05" length="17.60" shape="468.39,-561.11 463.67,-557.67 461.35,-554.25 461.43,-550.83 463.89,-547.42"/>
    </edge>
    <edge id=":junction10_7" function="internal">
        <lane id=":junction10_7_0" index="0" speed="11.93" length="19.41" shape="468.39,-561.11 462.74,-557.45 458.71,-553.96 456.28,-550.65 455.45,-547.51"/>
    </edge>
    <edge id=":junction10_8" function="internal">
        <lane id=":junction10_8_0" index="0" speed="24.06" length="27.98" shape="468.39,-561.11 463.10,-558.77 455.31,-556.08 447.40,-553.86 441.73,-552.94"/>
    </edge>
    <edge id=":junction10_9" function="internal">
        <lane id=":junction10_9_0" index="0" speed="8.29" length="21.45" shape="468.39,-561.11 461.35,-557.78 456.32,-557.17 453.30,-559.27 452.29,-564.08"/>
    </edge>
    <edge id=":junction10_10" function="internal">
        <lane id=":junction10_10_0" index="0" speed="6.82" length="14.07" shape="455.49,-564.09 456.20,-561.53 458.32,-560.64 461.84,-561.43 466.77,-563.88"/>
    </edge>
    <edge id=":junction10_11" function="internal">
        <lane id=":junction10_11_0" index="0" speed="8.99" length="18.19" shape="455.49,-564.09 456.39,-560.60 459.06,-558.11 463.51,-556.62 469.74,-556.12"/>
    </edge>
    <edge id=":junction10_12" function="internal">
        <lane id=":junction10_12_0" index="0" speed="13.89" length="19.19" shape="455.49,-564.09 456.02,-559.72 457.60,-555.49 460.22,-551.39 463.89,-547.42"/>
    </edge>
    <edge id=":junction10_13" function="internal">
        <lane id=":junction10_13_0" index="0" speed="40.00" length="16.57" shape="455.49,-564.09 455.45,-547.51"/>
    </edge>
    <edge id=":junction10_14" function="internal">
        <lane id=":junction10_14_0" index="0" speed="9.43" length="20.14" shape="455.49,-564.09 454.64,-559.20 452.06,-555.72 447.75,-553.63 441.73,-552.94"/>
    </edge>
    <edge id=":junction10_15" function="internal">
        <lane id=":junction10_15_0" index="0" speed="8.20" length="14.99" shape="441.74,-556.14 446.36,-556.63 449.66,-558.12 451.64,-560.60 452.29,-564.08"/>
    </edge>
    <edge id=":junction10_16" function="internal">
        <lane id=":junction10_16_0" index="0" speed="23.34" length="26.31" shape="441.74,-556.14 447.15,-556.99 454.51,-559.06 461.74,-561.61 466.77,-563.88"/>
    </edge>
    <edge id=":junction10_17" function="internal">
        <lane id=":junction10_17_0" index="0" speed="40.00" length="28.00" shape="441.74,-556.14 469.74,-556.12"/>
    </edge>
    <edge id=":junction10_18" function="internal">
        <lane id=":junction10_18_0" index="0" speed="16.65" length="7.39" shape="441.74,-556.14 446.79,-555.25 448.93,-554.53"/>
    </edge>
    <edge id=":junction10_19" function="internal">
        <lane id=":junction10_19_0" index="0" speed="8.98" length="9.05" shape="441.74,-556.14 447.76,-555.59 450.57,-554.53"/>
    </edge>
    <edge id=":junction10_33" function="internal">
        <lane id=":junction10_33_0" index="0" speed="16.65" length="16.65" shape="448.93,-554.53 453.32,-553.05 459.59,-550.22 463.89,-547.42"/>
    </edge>
    <edge id=":junction10_34" function="internal">
        <lane id=":junction10_34_0" index="0" speed="8.98" length="9.16" shape="450.57,-554.53 452.05,-553.97 454.62,-551.28 455.45,-547.51"/>
    </edge>
    <edge id=":junction10_20" function="internal">
        <lane id=":junction10_20_0" index="0" speed="5.46" length="9.87" shape="443.87,-547.45 445.97,-549.84 446.31,-551.56 444.90,-552.59 441.73,-552.94"/>
    </edge>
    <edge id=":junction10_21" function="internal">
        <lane id=":junction10_21_0" index="0" speed="13.83" length="19.18" shape="443.87,-547.45 447.56,-551.40 450.19,-555.49 451.77,-559.72 452.29,-564.08"/>
    </edge>
    <edge id=":junction10_22" function="internal">
        <lane id=":junction10_22_0" index="0" speed="40.00" length="28.20" shape="443.87,-547.45 448.39,-551.09 455.08,-555.99 461.89,-560.73 466.77,-563.88"/>
    </edge>
    <edge id=":junction10_23" function="internal">
        <lane id=":junction10_23_0" index="0" speed="17.80" length="27.48" shape="443.87,-547.45 448.76,-550.23 456.31,-553.05 464.10,-555.24 469.74,-556.12"/>
    </edge>
    <edge id=":junction10_24" function="internal">
        <lane id=":junction10_24_0" index="0" speed="10.23" length="22.46" shape="443.87,-547.45 448.89,-550.91 453.89,-552.07 458.90,-550.90 463.89,-547.42"/>
    </edge>
    <edge id=":junction10_25" function="internal">
        <lane id=":junction10_25_0" index="0" speed="6.28" length="13.14" shape="443.87,-547.45 446.88,-549.10 450.74,-549.91 454.05,-549.50 455.45,-547.51"/>
    </edge>
    <edge id=":junction10_26" function="internal">
        <lane id=":junction10_26_0" index="0" speed="7.70" length="13.11" shape="452.25,-547.54 451.61,-549.89 449.64,-551.58 446.35,-552.60 441.73,-552.94"/>
    </edge>
    <edge id=":junction10_27" function="internal">
        <lane id=":junction10_27_0" index="0" speed="40.00" length="16.55" shape="452.25,-547.54 452.29,-564.08"/>
    </edge>
    <edge id=":junction10_28" function="internal">
        <lane id=":junction10_28_0" index="0" speed="12.87" length="22.69" shape="452.25,-547.54 453.18,-551.52 455.91,-555.58 460.44,-559.69 466.77,-563.88"/>
    </edge>
    <edge id=":junction10_29" function="internal">
        <lane id=":junction10_29_0" index="0" speed="9.76" length="21.49" shape="452.25,-547.54 453.37,-551.29 456.65,-553.97 462.11,-555.58 469.74,-556.12"/>
    </edge>
    <edge id=":junction10_30" function="internal">
        <lane id=":junction10_30_0" index="0" speed="6.31" length="13.21" shape="452.25,-547.54 453.68,-549.53 457.02,-549.93 460.88,-549.10 463.89,-547.42"/>
    </edge>
    <edge id=":junction11_0" function="internal">
        <lane id=":junction11_0_0" index="0" speed="7.61" length="12.76" shape="151.26,-547.64 150.65,-550.17 148.80,-551.98 145.73,-553.06 141.44,-553.42"/>
    </edge>
    <edge id=":junction11_1" function="internal">
        <lane id=":junction11_1_0" index="0" speed="40.00" length="14.60" shape="151.26,-547.64 151.27,-562.24"/>
    </edge>
    <edge id=":junction11_2" function="internal">
        <lane id=":junction11_2_0" index="0" speed="9.12" length="5.09" shape="151.26,-547.64 152.14,-551.58 152.86,-552.35"/>
    </edge>
    <edge id=":junction11_3" function="internal">
        <lane id=":junction11_3_0" index="0" speed="6.42" length="5.21" shape="151.26,-547.64 152.71,-549.75 155.32,-550.17"/>
    </edge>
    <edge id=":junction11_21" function="internal">
        <lane id=":junction11_21_0" index="0" speed="9.12" length="13.68" shape="152.86,-552.35 154.77,-554.39 159.17,-556.07 165.32,-556.62"/>
    </edge>
    <edge id=":junction11_22" function="internal">
        <lane id=":junction11_22_0" index="0" speed="6.42" length="8.39" shape="155.32,-550.17 156.13,-550.30 160.11,-549.60 163.24,-547.97"/>
    </edge>
    <edge id=":junction11_4" function="internal">
        <lane id=":junction11_4_0" index="0" speed="5.46" length="9.96" shape="165.31,-553.42 162.10,-553.08 160.68,-552.06 161.06,-550.36 163.24,-547.97"/>
    </edge>
    <edge id=":junction11_5" function="internal">
        <lane id=":junction11_5_0" index="0" speed="7.86" length="13.67" shape="165.31,-553.42 160.57,-553.06 157.17,-551.98 155.14,-550.18 154.46,-547.64"/>
    </edge>
    <edge id=":junction11_6" function="internal">
        <lane id=":junction11_6_0" index="0" speed="40.00" length="23.88" shape="165.31,-553.42 141.44,-553.42"/>
    </edge>
    <edge id=":junction11_7" function="internal">
        <lane id=":junction11_7_0" index="0" speed="9.09" length="18.63" shape="165.31,-553.42 159.17,-553.98 154.77,-555.64 152.14,-558.39 151.27,-562.24"/>
    </edge>
    <edge id=":junction11_8" function="internal">
        <lane id=":junction11_8_0" index="0" speed="7.83" length="13.54" shape="154.47,-562.24 155.14,-559.79 157.18,-558.03 160.57,-556.98 165.32,-556.62"/>
    </edge>
    <edge id=":junction11_9" function="internal">
        <lane id=":junction11_9_0" index="0" speed="12.89" length="17.19" shape="154.47,-562.24 155.01,-558.92 156.66,-555.43 159.40,-551.79 163.24,-547.97"/>
    </edge>
    <edge id=":junction11_10" function="internal">
        <lane id=":junction11_10_0" index="0" speed="40.00" length="14.60" shape="154.47,-562.24 154.46,-547.64"/>
    </edge>
    <edge id=":junction11_11" function="internal">
        <lane id=":junction11_11_0" index="0" speed="8.89" length="5.12" shape="154.47,-562.24 153.65,-558.39 152.86,-557.50"/>
    </edge>
    <edge id=":junction11_23" function="internal">
        <lane id=":junction11_23_0" index="0" speed="8.89" length="12.62" shape="152.86,-557.50 151.20,-555.63 147.13,-553.98 141.44,-553.42"/>
    </edge>
    <edge id=":junction11_12" function="internal">
        <lane id=":junction11_12_0" index="0" speed="7.59" length="12.64" shape="141.43,-556.62 145.73,-556.98 148.80,-558.03 150.65,-559.79 151.27,-562.24"/>
    </edge>
    <edge id=":junction11_13" function="internal">
        <lane id=":junction11_13_0" index="0" speed="40.00" length="23.89" shape="141.43,-556.62 165.32,-556.62"/>
    </edge>
    <edge id=":junction11_14" function="internal">
        <lane id=":junction11_14_0" index="0" speed="16.86" length="23.68" shape="141.43,-556.62 146.42,-555.74 152.81,-553.54 158.96,-550.73 163.24,-547.97"/>
    </edge>
    <edge id=":junction11_15" function="internal">
        <lane id=":junction11_15_0" index="0" speed="8.91" length="17.88" shape="141.43,-556.62 147.13,-556.07 151.20,-554.39 153.65,-551.58 154.46,-547.64"/>
    </edge>
    <edge id=":junction11_16" function="internal">
        <lane id=":junction11_16_0" index="0" speed="5.49" length="9.66" shape="143.86,-547.82 145.69,-550.27 145.90,-552.02 144.48,-553.07 141.44,-553.42"/>
    </edge>
    <edge id=":junction11_17" function="internal">
        <lane id=":junction11_17_0" index="0" speed="13.74" length="16.52" shape="143.86,-547.82 146.46,-550.90 148.85,-554.52 150.59,-558.39 151.27,-562.24"/>
    </edge>
    <edge id=":junction11_18" function="internal">
        <lane id=":junction11_18_0" index="0" speed="15.51" length="23.85" shape="143.86,-547.82 148.32,-551.68 153.38,-554.43 159.05,-556.08 165.32,-556.62"/>
    </edge>
    <edge id=":junction11_19" function="internal">
        <lane id=":junction11_19_0" index="0" speed="9.94" length="21.95" shape="143.86,-547.82 148.41,-551.37 153.16,-552.58 158.10,-551.45 163.24,-547.97"/>
    </edge>
    <edge id=":junction11_20" function="internal">
        <lane id=":junction11_20_0" index="0" speed="5.98" length="12.09" shape="143.86,-547.82 146.54,-549.37 150.07,-550.02 153.14,-549.52 154.46,-547.64"/>
    </edge>
    <edge id=":junction12_0" function="internal">
        <lane id=":junction12_0_0" index="0" speed="40.00" length="13.18" shape="-197.61,-548.33 -197.62,-561.52"/>
    </edge>
    <edge id=":junction12_1" function="internal">
        <lane id=":junction12_1_0" index="0" speed="10.25" length="3.91" shape="-197.61,-548.33 -196.31,-551.65 -196.01,-551.83"/>
    </edge>
    <edge id=":junction12_2" function="internal">
        <lane id=":junction12_2_0" index="0" speed="8.81" length="3.73" shape="-197.61,-548.33 -196.01,-551.70"/>
    </edge>
    <edge id=":junction12_13" function="internal">
        <lane id=":junction12_13_0" index="0" speed="10.25" length="20.04" shape="-196.01,-551.83 -192.40,-554.02 -185.88,-555.46 -176.75,-555.95"/>
    </edge>
    <edge id=":junction12_14" function="internal">
        <lane id=":junction12_14_0" index="0" speed="8.81" length="19.18" shape="-196.01,-551.70 -195.93,-551.88 -191.47,-552.49 -185.10,-550.97 -177.72,-548.08"/>
    </edge>
    <edge id=":junction12_3" function="internal">
        <lane id=":junction12_3_0" index="0" speed="5.70" length="12.58" shape="-176.75,-552.75 -181.17,-552.45 -182.81,-551.57 -181.66,-550.11 -177.72,-548.08"/>
    </edge>
    <edge id=":junction12_4" function="internal">
        <lane id=":junction12_4_0" index="0" speed="9.21" length="19.12" shape="-176.75,-552.75 -184.48,-552.46 -190.00,-551.63 -193.31,-550.25 -194.41,-548.34"/>
    </edge>
    <edge id=":junction12_5" function="internal">
        <lane id=":junction12_5_0" index="0" speed="10.40" length="24.72" shape="-176.75,-552.75 -185.88,-553.28 -192.40,-554.92 -196.31,-557.67 -197.62,-561.52"/>
    </edge>
    <edge id=":junction12_6" function="internal">
        <lane id=":junction12_6_0" index="0" speed="9.35" length="19.78" shape="-194.42,-561.52 -193.31,-559.07 -190.00,-557.32 -184.48,-556.28 -176.75,-555.95"/>
    </edge>
    <edge id=":junction12_7" function="internal">
        <lane id=":junction12_7_0" index="0" speed="11.85" length="22.24" shape="-194.42,-561.52 -193.37,-558.37 -190.24,-555.08 -185.02,-551.65 -177.72,-548.08"/>
    </edge>
    <edge id=":junction12_8" function="internal">
        <lane id=":junction12_8_0" index="0" speed="40.00" length="13.18" shape="-194.42,-561.52 -194.41,-548.34"/>
    </edge>
    <edge id=":junction12_9" function="internal">
        <lane id=":junction12_9_0" index="0" speed="9.60" length="12.06" shape="-203.46,-551.59 -200.91,-553.57 -199.08,-555.88 -197.98,-558.53 -197.62,-561.52"/>
    </edge>
    <edge id=":junction12_10" function="internal">
        <lane id=":junction12_10_0" index="0" speed="22.81" length="27.18" shape="-203.46,-551.59 -198.20,-553.38 -190.39,-554.75 -182.44,-555.63 -176.75,-555.95"/>
    </edge>
    <edge id=":junction12_11" function="internal">
        <lane id=":junction12_11_0" index="0" speed="14.63" length="26.77" shape="-203.46,-551.59 -199.11,-553.07 -193.37,-552.97 -186.24,-551.31 -177.72,-548.08"/>
    </edge>
    <edge id=":junction12_12" function="internal">
        <lane id=":junction12_12_0" index="0" speed="6.59" length="13.19" shape="-203.46,-551.59 -199.51,-553.48 -196.68,-553.57 -194.98,-551.86 -194.41,-548.34"/>
    </edge>
    <edge id=":junction13_0" function="internal">
        <lane id=":junction13_0_0" index="0" speed="9.30" length="19.53" shape="-197.15,-1531.90 -196.21,-1535.77 -193.39,-1538.53 -188.68,-1540.18 -182.09,-1540.73"/>
    </edge>
    <edge id=":junction13_1" function="internal">
        <lane id=":junction13_1_0" index="0" speed="7.43" length="18.12" shape="-197.15,-1531.90 -196.32,-1535.85 -193.83,-1537.22 -189.69,-1536.02 -183.89,-1532.23"/>
    </edge>
    <edge id=":junction13_2" function="internal">
        <lane id=":junction13_2_0" index="0" speed="5.46" length="10.28" shape="-182.09,-1537.53 -185.48,-1537.20 -186.91,-1536.21 -186.38,-1534.55 -183.89,-1532.23"/>
    </edge>
    <edge id=":junction13_3" function="internal">
        <lane id=":junction13_3_0" index="0" speed="8.07" length="14.47" shape="-182.09,-1537.53 -187.28,-1537.18 -190.99,-1536.13 -193.21,-1534.36 -193.95,-1531.90"/>
    </edge>
    <edge id=":junction13_4" function="internal">
        <lane id=":junction13_4_0" index="0" speed="15.30" length="22.16" shape="-202.70,-1534.18 -198.98,-1537.05 -194.31,-1539.10 -188.68,-1540.32 -182.09,-1540.73"/>
    </edge>
    <edge id=":junction13_5" function="internal">
        <lane id=":junction13_5_0" index="0" speed="10.06" length="10.77" shape="-202.70,-1534.18 -198.90,-1536.71 -194.50,-1537.24 -192.80,-1536.73"/>
    </edge>
    <edge id=":junction13_6" function="internal">
        <lane id=":junction13_6_0" index="0" speed="6.53" length="11.01" shape="-202.70,-1534.18 -198.87,-1537.36 -196.14,-1538.04 -194.50,-1536.22 -194.40,-1535.46"/>
    </edge>
    <edge id=":junction13_7" function="internal">
        <lane id=":junction13_7_0" index="0" speed="10.06" length="10.07" shape="-192.80,-1536.73 -189.49,-1535.74 -183.89,-1532.23"/>
    </edge>
    <edge id=":junction13_8" function="internal">
        <lane id=":junction13_8_0" index="0" speed="6.53" length="3.59" shape="-194.40,-1535.46 -193.95,-1531.90"/>
    </edge>
    <edge id=":junction14_0" function="internal">
        <lane id=":junction14_0_0" index="0" speed="40.00" length="14.62" shape="151.47,-853.30 151.50,-867.92"/>
    </edge>
    <edge id=":junction14_1" function="internal">
        <lane id=":junction14_1_0" index="0" speed="8.93" length="5.22" shape="151.47,-853.30 152.30,-857.24 153.08,-858.14"/>
    </edge>
    <edge id=":junction14_2" function="internal">
        <lane id=":junction14_2_0" index="0" speed="6.02" length="5.47" shape="151.47,-853.30 152.80,-855.20 155.91,-855.71"/>
    </edge>
    <edge id=":junction14_13" function="internal">
        <lane id=":junction14_13_0" index="0" speed="8.93" length="12.74" shape="153.08,-858.14 154.76,-860.05 158.86,-861.74 164.60,-862.29"/>
    </edge>
    <edge id=":junction14_14" function="internal">
        <lane id=":junction14_14_0" index="0" speed="6.02" length="6.77" shape="155.91,-855.71 159.48,-855.06 162.20,-853.50"/>
    </edge>
    <edge id=":junction14_3" function="internal">
        <lane id=":junction14_3_0" index="0" speed="5.48" length="9.68" shape="164.59,-859.09 161.53,-858.75 160.12,-857.70 160.34,-855.95 162.20,-853.50"/>
    </edge>
    <edge id=":junction14_4" function="internal">
        <lane id=":junction14_4_0" index="0" speed="7.64" length="12.85" shape="164.59,-859.09 160.26,-858.74 157.16,-857.65 155.30,-855.84 154.67,-853.30"/>
    </edge>
    <edge id=":junction14_5" function="internal">
        <lane id=":junction14_5_0" index="0" speed="8.90" length="17.81" shape="164.59,-859.09 158.86,-859.65 154.76,-861.31 152.31,-864.06 151.50,-867.92"/>
    </edge>
    <edge id=":junction14_6" function="internal">
        <lane id=":junction14_6_0" index="0" speed="7.60" length="12.70" shape="154.70,-867.91 155.31,-865.46 157.17,-863.70 160.26,-862.65 164.60,-862.29"/>
    </edge>
    <edge id=":junction14_7" function="internal">
        <lane id=":junction14_7_0" index="0" speed="13.60" length="16.56" shape="154.70,-867.91 155.38,-864.06 157.15,-860.19 159.57,-856.57 162.20,-853.50"/>
    </edge>
    <edge id=":junction14_8" function="internal">
        <lane id=":junction14_8_0" index="0" speed="40.00" length="14.61" shape="154.70,-867.91 154.67,-853.30"/>
    </edge>
    <edge id=":junction14_9" function="internal">
        <lane id=":junction14_9_0" index="0" speed="12.69" length="13.95" shape="145.97,-855.48 148.28,-858.26 150.01,-861.19 151.11,-864.38 151.50,-867.92"/>
    </edge>
    <edge id=":junction14_10" function="internal">
        <lane id=":junction14_10_0" index="0" speed="14.35" length="20.38" shape="145.97,-855.48 149.54,-858.47 153.84,-860.60 158.86,-861.87 164.60,-862.29"/>
    </edge>
    <edge id=":junction14_11" function="internal">
        <lane id=":junction14_11_0" index="0" speed="8.96" length="18.78" shape="145.97,-855.48 149.65,-858.19 153.58,-858.76 157.76,-857.20 162.20,-853.50"/>
    </edge>
    <edge id=":junction14_12" function="internal">
        <lane id=":junction14_12_0" index="0" speed="6.54" length="14.82" shape="145.97,-855.48 149.78,-858.82 152.50,-859.57 154.13,-857.73 154.67,-853.30"/>
    </edge>
    <edge id=":junction15_0" function="internal">
        <lane id=":junction15_0_0" index="0" speed="7.97" length="14.06" shape="452.09,-851.20 451.47,-854.47 449.61,-856.81 446.52,-858.21 442.20,-858.69"/>
    </edge>
    <edge id=":junction15_1" function="internal">
        <lane id=":junction15_1_0" index="0" speed="40.00" length="18.89" shape="452.09,-851.20 452.12,-870.08"/>
    </edge>
    <edge id=":junction15_2" function="internal">
        <lane id=":junction15_2_0" index="0" speed="11.95" length="7.53" shape="452.09,-851.20 452.65,-855.91 453.70,-858.49"/>
    </edge>
    <edge id=":junction15_3" function="internal">
        <lane id=":junction15_3_0" index="0" speed="6.72" length="7.44" shape="452.09,-851.20 452.60,-856.77 453.70,-858.26"/>
    </edge>
    <edge id=":junction15_21" function="internal">
        <lane id=":junction15_21_0" index="0" speed="11.95" length="11.37" shape="453.70,-858.49 454.35,-860.08 457.18,-863.72 461.14,-866.83"/>
    </edge>
    <edge id=":junction15_22" function="internal">
        <lane id=":junction15_22_0" index="0" speed="6.72" length="9.73" shape="453.70,-858.26 454.15,-858.87 456.74,-857.50 460.37,-852.67"/>
    </edge>
    <edge id=":junction15_4" function="internal">
        <lane id=":junction15_4_0" index="0" speed="7.77" length="13.36" shape="462.84,-864.11 460.08,-861.77 458.75,-859.08 458.85,-856.05 460.37,-852.67"/>
    </edge>
    <edge id=":junction15_5" function="internal">
        <lane id=":junction15_5_0" index="0" speed="10.91" length="15.65" shape="462.84,-864.11 459.53,-861.53 457.17,-858.52 455.76,-855.08 455.29,-851.20"/>
    </edge>
    <edge id=":junction15_6" function="internal">
        <lane id=":junction15_6_0" index="0" speed="20.00" length="21.48" shape="462.84,-864.11 458.53,-862.15 452.81,-860.40 446.94,-859.16 442.20,-858.69"/>
    </edge>
    <edge id=":junction15_7" function="internal">
        <lane id=":junction15_7_0" index="0" speed="7.39" length="17.10" shape="462.84,-864.11 458.13,-861.96 454.77,-862.24 452.77,-864.94 452.12,-870.08"/>
    </edge>
    <edge id=":junction15_8" function="internal">
        <lane id=":junction15_8_0" index="0" speed="5.63" length="9.29" shape="455.32,-870.07 455.67,-867.28 456.76,-865.81 458.59,-865.66 461.14,-866.83"/>
    </edge>
    <edge id=":junction15_9" function="internal">
        <lane id=":junction15_9_0" index="0" speed="18.25" length="18.28" shape="455.32,-870.07 455.73,-865.84 456.84,-861.08 458.45,-856.47 460.37,-852.67"/>
    </edge>
    <edge id=":junction15_10" function="internal">
        <lane id=":junction15_10_0" index="0" speed="40.00" length="18.87" shape="455.32,-870.07 455.29,-851.20"/>
    </edge>
    <edge id=":junction15_11" function="internal">