<?xml version="1.0" encoding="UTF-8"?>

<routes>

	
    <vType id="conventional" vClass="passenger" sigma="1" maxSpeed="40.0" color="red" accel="10.0"/>
    <vType id="connected" vClass="passenger" tau="1.3" maxSpeed="28.00" lcCooperative="0.0" color="1,1,0" lcStrategic="1.0" accel="3.0" decel="1.5" emergencyDecel="4.5" lcSpeedGain="0.3" sigma="0.0" lcKeepRight="0.3"/>
    <vType id="connected_pCatchupFollower" vClass="passenger" emergencyDecel="4.5" length="5" tau="0.1" maxSpeed="28.00" color="1,1,0" accel="10.3" decel="1.7" sigma="0.0" minGap="2.0"/>
    <vType id="connected_pCatchup" vClass="passenger" tau="0.1" emergencyDecel="4.5" maxSpeed="28.00" color="0,0.8,0.3" accel="10.3" decel="1.7" sigma="0.0" minGap="2.0"/>
    <vType id="connected_pFollower" vClass="passenger" tau="0.1" maxSpeed="28.00" color="1,1,0" accel="10.3" decel="1.7" sigma="0.0"  minGap="2.0" emergencyDecel="4.5"/>
    <vType id="connected_pLeader" vClass="passenger" length="5" tau="1.3" maxSpeed="28.00" lcCooperative="0.0" color="1,1,0" lcStrategic="1.0" accel="2.0" decel="1.5" emergencyDecel="4.5" lcSpeedGain="0.3" sigma="0.0" lcKeepRight="0.3"/>
    


	
    <trip id="start1Toend2_0" type="connected" color="1,1,0" from="start1" to="end2" depart="0.000000" />
    <trip id="start1Toend3_0" type="connected" color="1,1,0" from="start1" to="end3" depart="0.000000" />
    <trip id="start1Toend4_0" type="connected" color="1,1,0" from="start1" to="end4" depart="0.000000" />
    <trip id="start1Toend5_0" type="connected" color="1,1,0" from="start1" to="end5" depart="0.000000" />
    <trip id="start1Toend6_0" type="connected" color="1,1,0" from="start1" to="end6" depart="0.000000" />
    <trip id="start1Toend7_0" type="connected" color="1,1,0" from="start1" to="end7" depart="0.000000" />
    <trip id="start1Toend8_0" type="connected" color="1,1,0" from="start1" to="end8" depart="0.000000" />
    <trip id="start1Toend9_0" type="connected" color="1,1,0" from="start1" to="end9" depart="0.000000" />
    <trip id="start1Toend10_0" type="connected" color="1,1,0" from="start1" to="end10" depart="0.000000" />
    <trip id="start1Toend11_0" type="connected" color="1,1,0" from="start1" to="end11" depart="0.000000" />
    <trip id="start1Toend12_0" type="connected" color="1,1,0" from="start1" to="end12" depart="0.000000" />
    <trip id="start1Toend13_0" type="connected" color="1,1,0" from="start1" to="end13" depart="0.000000" />
    <trip id="start1Toend14_0" type="connected" color="1,1,0" from="start1" to="end14" depart="0.000000" />
    <trip id="start1Toend15_0" type="connected" color="1,1,0" from="start1" to="end15" depart="0.000000" />
    <trip id="start1Toend16_0" type="connected" color="1,1,0" from="start1" to="end16" depart="0.000000" />
    <trip id="start1Toend17_0" type="connected" color="1,1,0" from="start1" to="end17" depart="0.000000" />
    <trip id="start1Toend18_0" type="connected" color="1,1,0" from="start1" to="end18" depart="0.000000" />
    <trip id="start1Toend19_0" type="connected" color="1,1,0" from="start1" to="end19" depart="0.000000" />
    <trip id="start1Toend20_0" type="connected" color="1,1,0" from="start1" to="end20" depart="0.000000" />
    <trip id="start1Toend21_0" type="connected" color="1,1,0" from="start1" to="end21" depart="0.000000" />
    <trip id="start1Toend22_0" type="connected" color="1,1,0" from="start1" to="end22" depart="0.000000" />
    <trip id="start1Toend23_0" type="connected" color="1,1,0" from="start1" to="end23" depart="0.000000" />
    <trip id="start1Toend24_0" type="connected" color="1,1,0" from="start1" to="end24" depart="0.000000" />
    <trip id="start2Toend1_0" type="connected" color="1,1,0" from="start2" to="end1" depart="0.000000" />
    <trip id="start2Toend3_0" type="connected" color="1,1,0" from="start2" to="end3" depart="0.000000" />
    <trip id="start2Toend4_0" type="connected" color="1,1,0" from="start2" to="end4" depart="0.000000" />
    <trip id="start2Toend5_0" type="connected" color="1,1,0" from="start2" to="end5" depart="0.000000" />
    <trip id="start2Toend6_0" type="connected" color="1,1,0" from="start2" to="end6" depart="0.000000" />
    <trip id="start2Toend7_0" type="connected" color="1,1,0" from="start2" to="end7" depart="0.000000" />
    <trip id="start2Toend8_0" type="connected" color="1,1,0" from="start2" to="end8" depart="0.000000" />
    <trip id="start2Toend9_0" type="connected" color="1,1,0" from="start2" to="end9" depart="0.000000" />
    <trip id="start2Toend10_0" type="connected" color="1,1,0" from="start2" to="end10" depart="0.000000" />
    <trip id="start2Toend11_0" type="connected" color="1,1,0" from="start2" to="end11" depart="0.000000" />
    <trip id="start2Toend12_0" type="connected" color="1,1,0" from="start2" to="end12" depart="0.000000" />
    <trip id="start2Toend13_0" type="connected" color="1,1,0" from="start2" to="end13" depart="0.000000" />
    <trip id="start2Toend14_0" type="connected" color="1,1,0" from="start2" to="end14" depart="0.000000" />
    <trip id="start2Toend15_0" type="connected" color="1,1,0" from="start2" to="end15" depart="0.000000" />
    <trip id="start2Toend16_0" type="connected" color="1,1,0" from="start2" to="end16" depart="0.000000" />
    <trip id="start2Toend17_0" type="connected" color="1,1,0" from="start2" to="end17" depart="0.000000" />
    <trip id="start2Toend18_0" type="connected" color="1,1,0" from="start2" to="end18" depart="0.000000" />
    <trip id="start2Toend19_0" type="connected" color="1,1,0" from="start2" to="end19" depart="0.000000" />
    <trip id="start2Toend20_0" type="connected" color="1,1,0" from="start2" to="end20" depart="0.000000" />
    <trip id="start2Toend21_0" type="connected" color="1,1,0" from="start2" to="end21" depart="0.000000" />
    <trip id="start2Toend22_0" type="connected" color="1,1,0" from="start2" to="end22" depart="0.000000" />
    <trip id="start2Toend23_0" type="connected" color="1,1,0" from="start2" to="end23" depart="0.000000" />
    <trip id="start2Toend24_0" type="connected" color="1,1,0" from="start2" to="end24" depart="0.000000" />
    <trip id="start3Toend1_0" type="connected" color="1,1,0" from="start3" to="end1" depart="0.000000" />
    <trip id="start3Toend2_0" type="connected" color="1,1,0" from="start3" to="end2" depart="0.000000" />
    <trip id="start3Toend4_0" type="connected" color="1,1,0" from="start3" to="end4" depart="0.000000" />
    <trip id="start3Toend5_0" type="connected" color="1,1,0" from="start3" to="end5" depart="0.000000" />
    <trip id="start3Toend6_0" type="connected" color="1,1,0" from="start3" to="end6" depart="0.000000" />
    <trip id="start3Toend7_0" type="connected" color="1,1,0" from="start3" to="end7" depart="0.000000" />
    <trip id="start3Toend8_0" type="connected" color="1,1,0" from="start3" to="end8" depart="0.000000" />
    <trip id="start3Toend9_0" type="connected" color="1,1,0" from="start3" to="end9" depart="0.000000" />
    <trip id="start3Toend10_0" type="connected" color="1,1,0" from="start3" to="end10" depart="0.000000" />
    <trip id="start3Toend11_0" type="connected" color="1,1,0" from="start3" to="end11" depart="0.000000" />
    <trip id="start3Toend12_0" type="connected" color="1,1,0" from="start3" to="end12" depart="0.000000" />
    <trip id="start3Toend13_0" type="connected" color="1,1,0" from="start3" to="end13" depart="0.000000" />
    <trip id="start3Toend14_0" type="connected" color="1,1,0" from="start3" to="end14" depart="0.000000" />
    <trip id="start3Toend15_0" type="connected" color="1,1,0" from="start3" to="end15" depart="0.000000" />
    <trip id="start3Toend16_0" type="connected" color="1,1,0" from="start3" to="end16" depart="0.000000" />
    <trip id="start3Toend17_0" type="connected" color="1,1,0" from="start3" to="end17" depart="0.000000" />
    <trip id="start3Toend18_0" type="connected" color="1,1,0" from="start3" to="end18" depart="0.000000" />
    <trip id="start3Toend19_0" type="connected" color="1,1,0" from="start3" to="end19" depart="0.000000" />
    <trip id="start3Toend20_0" type="connected" color="1,1,0" from="start3" to="end20" depart="0.000000" />
    <trip id="start3Toend21_0" type="connected" color="1,1,0" from="start3" to="end21" depart="0.000000" />
    <trip id="start3Toend22_0" type="connected" color="1,1,0" from="start3" to="end22" depart="0.000000" />
    <trip id="start3Toend23_0" type="connected" color="1,1,0" from="start3" to="end23" depart="0.000000" />
    <trip id="start3Toend24_0" type="connected" color="1,1,0" from="start3" to="end24" depart="0.000000" />
    <trip id="start4Toend1_0" type="connected" color="1,1,0" from="start4" to="end1" depart="0.000000" />
    <trip id="start4Toend2_0" type="connected" color="1,1,0" from="start4" to="end2" depart="0.000000" />
    <trip id="start4Toend3_0" type="connected" color="1,1,0" from="start4" to="end3" depart="0.000000" />
    <trip id="start4Toend5_0" type="connected" color="1,1,0" from="start4" to="end5" depart="0.000000" />
    <trip id="start4Toend6_0" type="connected" color="1,1,0" from="start4" to="end6" depart="0.000000" />
    <trip id="start4Toend7_0" type="connected" color="1,1,0" from="start4" to="end7" depart="0.000000" />
    <trip id="start4Toend8_0" type="connected" color="1,1,0" from="start4" to="end8" depart="0.000000" />
    <trip id="start4Toend9_0" type="connected" color="1,1,0" from="start4" to="end9" depart="0.000000" />
    <trip id="start4Toend10_0" type="connected" color="1,1,0" from="start4" to="end10" depart="0.000000" />
    <trip id="start4Toend11_0" type="connected" color="1,1,0" from="start4" to="end11" depart="0.000000" />
    <trip id="start4Toend12_0" type="connected" color="1,1,0" from="start4" to="end12" depart="0.000000" />
    <trip id="start4Toend13_0" type="connected" color="1,1,0" from="start4" to="end13" depart="0.000000" />
    <trip id="start4Toend14_0" type="connected" color="1,1,0" from="start4" to="end14" depart="0.000000" />
    <trip id="start4Toend15_0" type="connected" color="1,1,0" from="start4" to="end15" depart="0.000000" />
    <trip id="start4Toend16_0" type="connected" color="1,1,0" from="start4" to="end16" depart="0.000000" />
    <trip id="start4Toend17_0" type="connected" color="1,1,0" from="start4" to="end17" depart="0.000000" />
    <trip id="start4Toend18_0" type="connected" color="1,1,0" from="start4" to="end18" depart="0.000000" />
    <trip id="start4Toend19_0" type="connected" color="1,1,0" from="start4" to="end19" depart="0.000000" />
    <trip id="start4Toend20_0" type="connected" color="1,1,0" from="start4" to="end20" depart="0.000000" />
    <trip id="start4Toend21_0" type="connected" color="1,1,0" from="start4" to="end21" depart="0.000000" />
    <trip id="start4Toend22_0" type="connected" color="1,1,0" from="start4" to="end22" depart="0.000000" />
    <trip id="start4Toend23_0" type="connected" color="1,1,0" from="start4" to="end23" depart="0.000000" />
    <trip id="start4Toend24_0" type="connected" color="1,1,0" from="start4" to="end24" depart="0.000000" />
    <trip id="start5Toend1_0" type="connected" color="1,1,0" from="start5" to="end1" depart="0.000000" />
    <trip id="start5Toend2_0" type="connected" color="1,1,0" from="start5" to="end2" depart="0.000000" />
    <trip id="start5Toend3_0" type="connected" color="1,1,0" from="start5" to="end3" depart="0.000000" />
    <trip id="start5Toend4_0" type="connected" color="1,1,0" from="start5" to="end4" depart="0.000000" />
    <trip id="start5Toend6_0" type="connected" color="1,1,0" from="start5" to="end6" depart="0.000000" />
    <trip id="start5Toend7_0" type="connected" color="1,1,0" from="start5" to="end7" depart="0.000000" />
    <trip id="start5Toend8_0" type="connected" color="1,1,0" from="start5" to="end8" depart="0.000000" />
    <trip id="start5Toend9_0" type="connected" color="1,1,0" from="start5" to="end9" depart="0.000000" />
    <trip id="start5Toend10_0" type="connected" color="1,1,0" from="start5" to="end10" depart="0.000000" />
    <trip id="start5Toend11_0" type="connected" color="1,1,0" from="start5" to="end11" depart="0.000000" />
    <trip id="start5Toend12_0" type="connected" color="1,1,0" from="start5" to="end12" depart="0.000000" />
    <trip id="start5Toend13_0" type="connected" color="1,1,0" from="start5" to="end13" depart="0.000000" />
    <trip id="start5Toend14_0" type="connected" color="1,1,0" from="start5" to="end14" depart="0.000000" />
    <trip id="start5Toend15_0" type="connected" color="1,1,0" from="start5" to="end15" depart="0.000000" />
    <trip id="start5Toend16_0" type="connected" color="1,1,0" from="start5" to="end16" depart="0.000000" />
    <trip id="start5Toend17_0" type="connected" color="1,1,0" from="start5" to="end17" depart="0.000000" />
    <trip id="start5Toend18_0" type="connected" color="1,1,0" from="start5" to="end18" depart="0.000000" />
    <trip id="start5Toend19_0" type="connected" color="1,1,0" from="start5" to="end19" depart="0.000000" />
    <trip id="start5Toend20_0" type="connected" color="1,1,0" from="start5" to="end20" depart="0.000000" />
    <trip id="start5Toend21_0" type="connected" color="1,1,0" from="start5" to="end21" depart="0.000000" />
    <trip id="start5Toend22_0" type="connected" color="1,1,0" from="start5" to="end22" depart="0.000000" />
    <trip id="start5Toend23_0" type="connected" color="1,1,0" from="start5" to="end23" depart="0.000000" />
    <trip id="start5Toend24_0" type="connected" color="1,1,0" from="start5" to="end24" depart="0.000000" />
    <trip id="start6Toend1_0" type="connected" color="1,1,0" from="start6" to="end1" depart="0.000000" />
    <trip id="start6Toend2_0" type="connected" color="1,1,0" from="start6" to="end2" depart="0.000000" />
    <trip id="start6Toend3_0" type="connected" color="1,1,0" from="start6" to="end3" depart="0.000000" />
    <trip id="start6Toend4_0" type="connected" color="1,1,0" from="start6" to="end4" depart="0.000000" />
    <trip id="start6Toend5_0" type="connected" color="1,1,0" from="start6" to="end5" depart="0.000000" />
    <trip id="start6Toend7_0" type="connected" color="1,1,0" from="start6" to="end7" depart="0.000000" />
    <trip id="start6Toend8_0" type="connected" color="1,1,0" from="start6" to="end8" depart="0.000000" />
    <trip id="start6Toend9_0" type="connected" color="1,1,0" from="start6" to="end9" depart="0.000000" />
    <trip id="start6Toend10_0" type="connected" color="1,1,0" from="start6" to="end10" depart="0.000000" />
    <trip id="start6Toend11_0" type="connected" color="1,1,0" from="start6" to="end11" depart="0.000000" />
    <trip id="start6Toend12_0" type="connected" color="1,1,0" from="start6" to="end12" depart="0.000000" />
    <trip id="start6Toend13_0" type="connected" color="1,1,0" from="start6" to="end13" depart="0.000000" />
    <trip id="start6Toend14_0" type="connected" color="1,1,0" from="start6" to="end14" depart="0.000000" />
    <trip id="start6Toend15_0" type="connected" color="1,1,0" from="start6" to="end15" depart="0.000000" />
    <trip id="start6Toend16_0" type="connected" color="1,1,0" from="start6" to="end16" depart="0.000000" />
    <trip id="start6Toend17_0" type="connected" color="1,1,0" from="start6" to="end17" depart="0.000000" />
    <trip id="start6Toend18_0" type="connected" color="1,1,0" from="start6" to="end18" depart="0.000000" />
    <trip id="start6Toend19_0" type="connected" color="1,1,0" from="start6" to="end19" depart="0.000000" />
    <trip id="start6Toend20_0" type="connected" color="1,1,0" from="start6" to="end20" depart="0.000000" />
    <trip id="start6Toend21_0" type="connected" color="1,1,0" from="start6" to="end21" depart="0.000000" />
    <trip id="start6Toend22_0" type="connected" color="1,1,0" from="start6" to="end22" depart="0.000000" />
    <trip id="start6Toend23_0" type="connected" color="1,1,0" from="start6" to="end23" depart="0.000000" />
    <trip id="start6Toend24_0" type="connected" color="1,1,0" from="start6" to="end24" depart="0.000000" />
    <trip id="start7Toend1_0" type="connected" color="1,1,0" from="start7" to="end1" depart="0.000000" />
    <trip id="start7Toend2_0" type="connected" color="1,1,0" from="start7" to="end2" depart="0.000000" />
    <trip id="start7Toend3_0" type="connected" color="1,1,0" from="start7" to="end3" depart="0.000000" />
    <trip id="start7Toend4_0" type="connected" color="1,1,0" from="start7" to="end4" depart="0.000000" />
    <trip id="start7Toend5_0" type="connected" color="1,1,0" from="start7" to="end5" depart="0.000000" />
    <trip id="start7Toend6_0" type="connected" color="1,1,0" from="start7" to="end6" depart="0.000000" />
    <trip id="start7Toend8_0" type="connected" color="1,1,0" from="start7" to="end8" depart="0.000000" />
    <trip id="start7Toend9_0" type="connected" color="1,1,0" from="start7" to="end9" depart="0.000000" />
    <trip id="start7Toend10_0" type="connected" color="1,1,0" from="start7" to="end10" depart="0.000000" />
    <trip id="start7Toend11_0" type="connected" color="1,1,0" from="start7" to="end11" depart="0.000000" />
    <trip id="start7Toend12_0" type="connected" color="1,1,0" from="start7" to="end12" depart="0.000000" />
    <trip id="start7Toend13_0" type="connected" color="1,1,0" from="start7" to="end13" depart="0.000000" />
    <trip id="start7Toend14_0" type="connected" color="1,1,0" from="start7" to="end14" depart="0.000000" />
    <trip id="start7Toend15_0" type="connected" color="1,1,0" from="start7" to="end15" depart="0.000000" />
    <trip id="start7Toend16_0" type="connected" color="1,1,0" from="start7" to="end16" depart="0.000000" />
    <trip id="start7Toend17_0" type="connected" color="1,1,0" from="start7" to="end17" depart="0.000000" />
    <trip id="start7Toend18_0" type="connected" color="1,1,0" from="start7" to="end18" depart="0.000000" />
    <trip id="start7Toend19_0" type="connected" color="1,1,0" from="start7" to="end19" depart="0.000000" />
    <trip id="start7Toend20_0" type="connected" color="1,1,0" from="start7" to="end20" depart="0.000000" />
    <trip id="start7Toend21_0" type="connected" color="1,1,0" from="start7" to="end21" depart="0.000000" />
    <trip id="start7Toend22_0" type="connected" color="1,1,0" from="start7" to="end22" depart="0.000000" />
    <trip id="start7Toend23_0" type="connected" color="1,1,0" from="start7" to="end23" depart="0.000000" />
    <trip id="start7Toend24_0" type="connected" color="1,1,0" from="start7" to="end24" depart="0.000000" />
    <trip id="start8Toend1_0" type="connected" color="1,1,0" from="start8" to="end1" depart="0.000000" />
    <trip id="start8Toend2_0" type="connected" color="1,1,0" from="start8" to="end2" depart="0.000000" />
    <trip id="start8Toend3_0" type="connected" color="1,1,0" from="start8" to="end3" depart="0.000000" />
    <trip id="start8Toend4_0" type="connected" color="1,1,0" from="start8" to="end4" depart="0.000000" />
    <trip id="start8Toend5_0" type="connected" color="1,1,0" from="start8" to="end5" depart="0.000000" />
    <trip id="start8Toend6_0" type="connected" color="1,1,0" from="start8" to="end6" depart="0.000000" />
    <trip id="start8Toend7_0" type="connected" color="1,1,0" from="start8" to="end7" depart="0.000000" />
    <trip id="start8Toend9_0" type="connected" color="1,1,0" from="start8" to="end9" depart="0.000000" />
    <trip id="start8Toend10_0" type="connected" color="1,1,0" from="start8" to="end10" depart="0.000000" />
    <trip id="start8Toend11_0" type="connected" color="1,1,0" from="start8" to="end11" depart="0.000000" />
    <trip id="start8Toend12_0" type="connected" color="1,1,0" from="start8" to="end12" depart="0.000000" />
    <trip id="start8Toend13_0" type="connected" color="1,1,0" from="start8" to="end13" depart="0.000000" />
    <trip id="start8Toend14_0" type="connected" color="1,1,0" from="start8" to="end14" depart="0.000000" />
    <trip id="start8Toend15_0" type="connected" color="1,1,0" from="start8" to="end15" depart="0.000000" />
    <trip id="start8Toend16_0" type="connected" color="1,1,0" from="start8" to="end16" depart="0.000000" />
    <trip id="start8Toend17_0" type="connected" color="1,1,0" from="start8" to="end17" depart="0.000000" />
    <trip id="start8Toend18_0" type="connected" color="1,1,0" from="start8" to="end18" depart="0.000000" />
    <trip id="start8Toend19_0" type="connected" color="1,1,0" from="start8" to="end19" depart="0.000000" />
    <trip id="start8Toend20_0" type="connected" color="1,1,0" from="start8" to="end20" depart="0.000000" />
    <trip id="start8Toend21_0" type="connected" color="1,1,0" from="start8" to="end21" depart="0.000000" />
    <trip id="start8Toend22_0" type="connected" color="1,1,0" from="start8" to="end22" depart="0.000000" />
    <trip id="start8Toend23_0" type="connected" color="1,1,0" from="start8" to="end23" depart="0.000000" />
    <trip id="start8Toend24_0" type="connected" color="1,1,0" from="start8" to="end24" depart="0.000000" />
    <trip id="start9Toend1_0" type="connected" color="1,1,0" from="start9" to="end1" depart="0.000000" />
    <trip id="start9Toend2_0" type="connected" color="1,1,0" from="start9" to="end2" depart="0.000000" />
    <trip id="start9Toend3_0" type="connected" color="1,1,0" from="start9" to="end3" depart="0.000000" />
    <trip id="start9Toend4_0" type="connected" color="1,1,0" from="start9" to="end4" depart="0.000000" />
    <trip id="start9Toend5_0" type="connected" color="1,1,0" from="start9" to="end5" depart="0.000000" />
    <trip id="start9Toend6_0" type="connected" color="1,1,0" from="start9" to="end6" depart="0.000000" />
    <trip id="start9Toend7_0" type="connected" color="1,1,0" from="start9" to="end7" depart="0.000000" />
    <trip id="start9Toend8_0" type="connected" color="1,1,0" from="start9" to="end8" depart="0.000000" />
    <trip id="start9Toend10_0" type="connected" color="1,1,0" from="start9" to="end10" depart="0.000000" />
    <trip id="start9Toend11_0" type="connected" color="1,1,0" from="start9" to="end11" depart="0.000000" />
    <trip id="start9Toend12_0" type="connected" color="1,1,0" from="start9" to="end12" depart="0.000000" />
    <trip id="start9Toend13_0" type="connected" color="1,1,0" from="start9" to="end13" depart="0.000000" />
    <trip id="start9Toend14_0" type="connected" color="1,1,0" from="start9" to="end14" depart="0.000000" />
    <trip id="start9Toend15_0" type="connected" color="1,1,0" from="start9" to="end15" depart="0.000000" />
    <trip id="start9Toend16_0" type="connected" color="1,1,0" from="start9" to="end16" depart="0.000000" />
    <trip id="start9Toend17_0" type="connected" color="1,1,0" from="start9" to="end17" depart="0.000000" />
    <trip id="start9Toend18_0" type="connected" color="1,1,0" from="start9" to="end18" depart="0.000000" />
    <trip id="start9Toend19_0" type="connected" color="1,1,0" from="start9" to="end19" depart="0.000000" />
    <trip id="start9Toend20_0" type="connected" color="1,1,0" from="start9" to="end20" depart="0.000000" />
    <trip id="start9Toend21_0" type="connected" color="1,1,0" from="start9" to="end21" depart="0.000000" />
    <trip id="start9Toend22_0" type="connected" color="1,1,0" from="start9" to="end22" depart="0.000000" />
    <trip id="start9Toend23_0" type="connected" color="1,1,0" from="start9" to="end23" depart="0.000000" />
    <trip id="start9Toend24_0" type="connected" color="1,1,0" from="start9" to="end24" depart="0.000000" />
    <trip id="start10Toend1_0" type="connected" color="1,1,0" from="start10" to="end1" depart="0.000000" />
    <trip id="start10Toend2_0" type="connected" color="1,1,0" from="start10" to="end2" depart="0.000000" />
    <trip id="start10Toend3_0" type="connected" color="1,1,0" from="start10" to="end3" depart="0.000000" />
    <trip id="start10Toend4_0" type="connected" color="1,1,0" from="start10" to="end4" depart="0.000000" />
    <trip id="start10Toend5_0" type="connected" color="1,1,0" from="start10" to="end5" depart="0.000000" />
    <trip id="start10Toend6_0" type="connected" color="1,1,0" from="start10" to="end6" depart="0.000000" />
    <trip id="start10Toend7_0" type="connected" color="1,1,0" from="start10" to="end7" depart="0.000000" />
    <trip id="start10Toend8_0" type="connected" color="1,1,0" from="start10" to="end8" depart="0.000000" />
    <trip id="start10Toend9_0" type="connected" color="1,1,0" from="start10" to="end9" depart="0.000000" />
    <trip id="start10Toend11_0" type="connected" color="1,1,0" from="start10" to="end11" depart="0.000000" />
    <trip id="start10Toend12_0" type="connected" color="1,1,0" from="start10" to="end12" depart="0.000000" />
    <trip id="start10Toend13_0" type="connected" color="1,1,0" from="start10" to="end13" depart="0.000000" />
    <trip id="start10Toend14_0" type="connected" color="1,1,0" from="start10" to="end14" depart="0.000000" />
    <trip id="start10Toend15_0" type="connected" color="1,1,0" from="start10" to="end15" depart="0.000000" />
    <trip id="start10Toend16_0" type="connected" color="1,1,0" from="start10" to="end16" depart="0.000000" />
    <trip id="start10Toend17_0" type="connected" color="1,1,0" from="start10" to="end17" depart="0.000000" />
    <trip id="start10Toend18_0" type="connected" color="1,1,0" from="start10" to="end18" depart="0.000000" />
    <trip id="start10Toend19_0" type="connected" color="1,1,0" from="start10" to="end19" depart="0.000000" />
    <trip id="start10Toend20_0" type="connected" color="1,1,0" from="start10" to="end20" depart="0.000000" />
    <trip id="start10Toend21_0" type="connected" color="1,1,0" from="start10" to="end21" depart="0.000000" />
    <trip id="start10Toend22_0" type="connected" color="1,1,0" from="start10" to="end22" depart="0.000000" />
    <trip id="start10Toend23_0" type="connected" color="1,1,0" from="start10" to="end23" depart="0.000000" />
    <trip id="start10Toend24_0" type="connected" color="1,1,0" from="start10" to="end24" depart="0.000000" />
    <trip id="start11Toend1_0" type="connected" color="1,1,0" from="start11" to="end1" depart="0.000000" />
    <trip id="start11Toend2_0" type="connected" color="1,1,0" from="start11" to="end2" depart="0.000000" />
    <trip id="start11Toend3_0" type="connected" color="1,1,0" from="start11" to="end3" depart="0.000000" />
    <trip id="start11Toend4_0" type="connected" color="1,1,0" from="start11" to="end4" depart="0.000000" />
    <trip id="start11Toend5_0" type="connected" color="1,1,0" from="start11" to="end5" depart="0.000000" />
    <trip id="start11Toend6_0" type="connected" color="1,1,0" from="start11" to="end6" depart="0.000000" />
    <trip id="start11Toend7_0" type="connected" color="1,1,0" from="start11" to="end7" depart="0.000000" />
    <trip id="start11Toend8_0" type="connected" color="1,1,0" from="start11" to="end8" depart="0.000000" />
    <trip id="start11Toend9_0" type="connected" color="1,1,0" from="start11" to="end9" depart="0.000000" />
    <trip id="start11Toend10_0" type="connected" color="1,1,0" from="start11" to="end10" depart="0.000000" />
    <trip id="start11Toend12_0" type="connected" color="1,1,0" from="start11" to="end12" depart="0.000000" />
    <trip id="start11Toend13_0" type="connected" color="1,1,0" from="start11" to="end13" depart="0.000000" />
    <trip id="start11Toend14_0" type="connected" color="1,1,0" from="start11" to="end14" depart="0.000000" />
    <trip id="start11Toend15_0" type="connected" color="1,1,0" from="start11" to="end15" depart="0.000000" />
    <trip id="start11Toend16_0" type="connected" color="1,1,0" from="start11" to="end16" depart="0.000000" />
    <trip id="start11Toend17_0" type="connected" color="1,1,0" from="start11" to="end17" depart="0.000000" />
    <trip id="start11Toend18_0" type="connected" color="1,1,0" from="start11" to="end18" depart="0.000000" />
    <trip id="start11Toend19_0" type="connected" color="1,1,0" from="start11" to="end19" depart="0.000000" />
    <trip id="start11Toend20_0" type="connected" color="1,1,0" from="start11" to="end20" depart="0.000000" />
    <trip id="start11Toend21_0" type="connected" color="1,1,0" from="start11" to="end21" depart="0.000000" />
    <trip id="start11Toend22_0" type="connected" color="1,1,0" from="start11" to="end22" depart="0.000000" />
    <trip id="start11Toend23_0" type="connected" color="1,1,0" from="start11" to="end23" depart="0.000000" />
    <trip id="start11Toend24_0" type="connected" color="1,1,0" from="start11" to="end24" depart="0.000000" />
    <trip id="start12Toend1_0" type="connected" color="1,1,0" from="start12" to="end1" depart="0.000000" />
    <trip id="start12Toend2_0" type="connected" color="1,1,0" from="start12" to="end2" depart="0.000000" />
    <trip id="start12Toend3_0" type="connected" color="1,1,0" from="start12" to="end3" depart="0.000000" />
    <trip id="start12Toend4_0" type="connected" color="1,1,0" from="start12" to="end4" depart="0.000000" />
    <trip id="start12Toend5_0" type="connected" color="1,1,0" from="start12" to="end5" depart="0.000000" />
    <trip id="start12Toend6_0" type="connected" color="1,1,0" from="start12" to="end6" depart="0.000000" />
    <trip id="start12Toend7_0" type="connected" color="1,1,0" from="start12" to="end7" depart="0.000000" />
    <trip id="start12Toend8_0" type="connected" color="1,1,0" from="start12" to="end8" depart="0.000000" />
    <trip id="start12Toend9_0" type="connected" color="1,1,0" from="start12" to="end9" depart="0.000000" />
    <trip id="start12Toend10_0" type="connected" color="1,1,0" from="start12" to="end10" depart="0.000000" />
    <trip id="start12Toend11_0" type="connected" color="1,1,0" from="start12" to="end11" depart="0.000000" />
    <trip id="start12Toend13_0" type="connected" color="1,1,0" from="start12" to="end13" depart="0.000000" />
    <trip id="start12Toend14_0" type="connected" color="1,1,0" from="start12" to="end14" depart="0.000000" />
    <trip id="start12Toend15_0" type="connected" color="1,1,0" from="start12" to="end15" depart="0.000000" />