<?xml version="1.0" encoding="UTF-8"?>

<routes>

	
    <vType id="conventional" vClass="passenger" sigma="1" maxSpeed="40.0" color="red" accel="10.0"/>
    <vType id="connected" vClass="passenger" tau="1.3" maxSpeed="28.00" lcCooperative="0.0" color="1,1,0" lcStrategic="1.0" accel="3.0" decel="1.5" emergencyDecel="4.5" lcSpeedGain="0.3" sigma="0.0" lcKeepRight="0.3"/>
    <vType id="connected_pCatchupFollower" vClass="passenger" emergencyDecel="4.5" length="5" tau="0.1" maxSpeed="28.00" color="1,1,0" accel="10.3" decel="1.7" sigma="0.0" minGap="2.0"/>
    <vType id="connected_pCatchup" vClass="passenger" tau="0.1" emergencyDecel="4.5" maxSpeed="28.00" color="0,0.8,0.3" accel="10.3" decel="1.7" sigma="0.0" minGap="2.0"/>
    <vType id="connected_pFollower" vClass="passenger" tau="0.1" maxSpeed="28.00" color="1,1,0" accel="10.3" decel="1.7" sigma="0.0"  minGap="2.0" emergencyDecel="4.5"/>
    <vType id="connected_pLeader" vClass="passenger" length="5" tau="1.3" maxSpeed="28.00" lcCooperative="0.0" color="1,1,0" lcStrategic="1.0" accel="2.0" decel="1.5" emergencyDecel="4.5" lcSpeedGain="0.3" sigma="0.0" lcKeepRight="0.3"/>
    


	
    <trip id="start1Toend20_0" type="connected" color="1,1,0" from="start1" to="end20" depart="0.000000" />
    <trip id="start2Toend20_0" type="connected" color="1,1,0" from="start2" to="end20" depart="0.000000" />
    <trip id="start4Toend21_0" type="connected" color="1,1,0" from="start4" to="end21" depart="0.000000" />
    <trip id="start3Toend19_0" type="connected" color="1,1,0" from="start3" to="end19" depart="0.000000" />
    <trip id="start9Toend20_0" type="connected" color="1,1,0" from="start9" to="end20" depart="0.000000" />
    <trip id="start9Toend20_1" type="connected" color="1,1,0" from="start9" to="end20" depart="2.253980" />
    <trip id="start3Toend19_1" type="connected" color="1,1,0" from="start3" to="end19" depart="5.087326" />
    <trip id="start2Toend20_1" type="connected" color="1,1,0" from="start2" to="end20" depart="8.853362" />
    <trip id="start2Toend20_2" type="connected" color="1,1,0" from="start2" to="end20" depart="12.455371" />
    <trip id="start4Toend21_1" type="connected" color="1,1,0" from="start4" to="end21" depart="14.412534" />
    <trip id="start1Toend20_1" type="connected" color="1,1,0" from="start1" to="end20" depart="24.594126" />
    <trip id="start4Toend21_2" type="connected" color="1,1,0" from="start4" to="end21" depart="26.802777" />
    <trip id="start9Toend20_2" type="connected" color="1,1,0" from="start9" to="end20" depart="26.879750" />
    <trip id="start9Toend20_3" type="connected" color="1,1,0" from="start9" to="end20" depart="30.406370" />
    <trip id="start4Toend21_3" type="connected" color="1,1,0" from="start4" to="end21" depart="41.801437" />
    <trip id="start1Toend20_2" type="connected" color="1,1,0" from="start1" to="end20" depart="43.767514" />
    <trip id="start9Toend20_4" type="connected" color="1,1,0" from="start9" to="end20" depart="46.077403" />
    <trip id="start1Toend20_3" type="connected" color="1,1,0" from="start1" to="end20" depart="48.116092" />
    <trip id="start4Toend21_4" type="connected" color="1,1,0" from="start4" to="end21" depart="52.695114" />
    <trip id="start1Toend20_4" type="connected" color="1,1,0" from="start1" to="end20" depart="54.023985" />
    <trip id="start4Toend21_5" type="connected" color="1,1,0" from="start4" to="end21" depart="55.293045" />
    <trip id="start1Toend20_5" type="connected" color="1,1,0" from="start1" to="end20" depart="57.366621" />
    <trip id="start1Toend20_6" type="connected" color="1,1,0" from="start1" to="end20" depart="58.319693" />
    <trip id="start9Toend20_5" type="connected" color="1,1,0" from="start9" to="end20" depart="58.330352" />
    <trip id="start3Toend19_2" type="connected" color="1,1,0" from="start3" to="end19" depart="58.791292" />
    <trip id="start3Toend19_3" type="connected" color="1,1,0" from="start3" to="end19" depart="59.843783" />
    <trip id="start4Toend21_6" type="connected" color="1,1,0" from="start4" to="end21" depart="60.214829" />
    <trip id="start2Toend20_3" type="connected" color="1,1,0" from="start2" to="end20" depart="80.698302" />
    <trip id="start4Toend21_7" type="connected" color="1,1,0" from="start4" to="end21" depart="83.552975" />
    <trip id="start1Toend20_7" type="connected" color="1,1,0" from="start1" to="end20" depart="87.507201" />
    <trip id="start4Toend21_8" type="connected" color="1,1,0" from="start4" to="end21" depart="87.601065" />
    <trip id="start4Toend21_9" type="connected" color="1,1,0" from="start4" to="end21" depart="92.667486" />
    <trip id="start1Toend20_8" type="connected" color="1,1,0" from="start1" to="end20" depart="93.950225" />
    <trip id="start9Toend20_6" type="connected" color="1,1,0" from="start9" to="end20" depart="97.192100" />
    <trip id="start1Toend20_9" type="connected" color="1,1,0" from="start1" to="end20" depart="100.621084" />
    <trip id="start2Toend20_4" type="connected" color="1,1,0" from="start2" to="end20" depart="101.549915" />
    <trip id="start4Toend21_10" type="connected" color="1,1,0" from="start4" to="end21" depart="101.633437" />
    <trip id="start3Toend19_4" type="connected" color="1,1,0" from="start3" to="end19" depart="102.310791" />
    <trip id="start3Toend19_5" type="connected" color="1,1,0" from="start3" to="end19" depart="109.691220" />
    <trip id="start3Toend19_6" type="connected" color="1,1,0" from="start3" to="end19" depart="109.844834" />
    <trip id="start3Toend19_7" type="connected" color="1,1,0" from="start3" to="end19" depart="124.053056" />
    <trip id="start4Toend21_11" type="connected" color="1,1,0" from="start4" to="end21" depart="125.677159" />
    <trip id="start1Toend20_10" type="connected" color="1,1,0" from="start1" to="end20" depart="126.460675" />
    <trip id="start1Toend20_11" type="connected" color="1,1,0" from="start1" to="end20" depart="127.923732" />
    <trip id="start4Toend21_12" type="connected" color="1,1,0" from="start4" to="end21" depart="129.394736" />
    <trip id="start4Toend21_13" type="connected" color="1,1,0" from="start4" to="end21" depart="129.859886" />
    <trip id="start9Toend20_7" type="connected" color="1,1,0" from="start9" to="end20" depart="134.229969" />
    <trip id="start9Toend20_8" type="connected" color="1,1,0" from="start9" to="end20" depart="137.565295" />
    <trip id="start9Toend20_9" type="connected" color="1,1,0" from="start9" to="end20" depart="145.253332" />
    <trip id="start2Toend20_5" type="connected" color="1,1,0" from="start2" to="end20" depart="149.242566" />
    <trip id="start2Toend20_6" type="connected" color="1,1,0" from="start2" to="end20" depart="155.875302" />
    <trip id="start3Toend19_8" type="connected" color="1,1,0" from="start3" to="end19" depart="155.949673" />
    <trip id="start9Toend20_10" type="connected" color="1,1,0" from="start9" to="end20" depart="156.399960" />
    <trip id="start1Toend20_12" type="connected" color="1,1,0" from="start1" to="end20" depart="156.455459" />
    <trip id="start2Toend20_7" type="connected" color="1,1,0" from="start2" to="end20" depart="160.063735" />
    <trip id="start1Toend20_13" type="connected" color="1,1,0" from="start1" to="end20" depart="161.846262" />
    <trip id="start2Toend20_8" type="connected" color="1,1,0" from="start2" to="end20" depart="164.570612" />
    <trip id="start2Toend20_9" type="connected" color="1,1,0" from="start2" to="end20" depart="164.731313" />
    <trip id="start4Toend21_14" type="connected" color="1,1,0" from="start4" to="end21" depart="164.898447" />
    <trip id="start9Toend20_11" type="connected" color="1,1,0" from="start9" to="end20" depart="165.952383" />
    <trip id="start1Toend20_14" type="connected" color="1,1,0" from="start1" to="end20" depart="168.879120" />
    <trip id="start9Toend20_12" type="connected" color="1,1,0" from="start9" to="end20" depart="172.211781" />
    <trip id="start9Toend20_13" type="connected" color="1,1,0" from="start9" to="end20" depart="181.783111" />
    <trip id="start3Toend19_9" type="connected" color="1,1,0" from="start3" to="end19" depart="183.995819" />
    <trip id="start2Toend20_10" type="connected" color="1,1,0" from="start2" to="end20" depart="187.042040" />
    <trip id="start2Toend20_11" type="connected" color="1,1,0" from="start2" to="end20" depart="188.219389" />
    <trip id="start2Toend20_12" type="connected" color="1,1,0" from="start2" to="end20" depart="190.792319" />
    <trip id="start1Toend20_15" type="connected" color="1,1,0" from="start1" to="end20" depart="192.896082" />
    <trip id="start9Toend20_14" type="connected" color="1,1,0" from="start9" to="end20" depart="195.873768" />
    <trip id="start4Toend21_15" type="connected" color="1,1,0" from="start4" to="end21" depart="197.335107" />
    <trip id="start3Toend19_10" type="connected" color="1,1,0" from="start3" to="end19" depart="207.472968" />
    <trip id="start3Toend19_11" type="connected" color="1,1,0" from="start3" to="end19" depart="211.868484" />
    <trip id="start3Toend19_12" type="connected" color="1,1,0" from="start3" to="end19" depart="215.156704" />
    <trip id="start1Toend20_16" type="connected" color="1,1,0" from="start1" to="end20" depart="222.190064" />
    <trip id="start1Toend20_17" type="connected" color="1,1,0" from="start1" to="end20" depart="226.302754" />
    <trip id="start3Toend19_13" type="connected" color="1,1,0" from="start3" to="end19" depart="227.710586" />
    <trip id="start3Toend19_14" type="connected" color="1,1,0" from="start3" to="end19" depart="231.089948" />
    <trip id="start4Toend21_16" type="connected" color="1,1,0" from="start4" to="end21" depart="231.693833" />
    <trip id="start4Toend21_17" type="connected" color="1,1,0" from="start4" to="end21" depart="232.816563" />
    <trip id="start1Toend20_18" type="connected" color="1,1,0" from="start1" to="end20" depart="234.659339" />
    <trip id="start2Toend20_13" type="connected" color="1,1,0" from="start2" to="end20" depart="244.246019" />
    <trip id="start2Toend20_14" type="connected" color="1,1,0" from="start2" to="end20" depart="248.553425" />
    <trip id="start4Toend21_18" type="connected" color="1,1,0" from="start4" to="end21" depart="248.720514" />
    <trip id="start9Toend20_15" type="connected" color="1,1,0" from="start9" to="end20" depart="249.118181" />
    <trip id="start2Toend20_15" type="connected" color="1,1,0" from="start2" to="end20" depart="250.721259" />
    <trip id="start9Toend20_16" type="connected" color="1,1,0" from="start9" to="end20" depart="256.342146" />
    <trip id="start1Toend20_19" type="connected" color="1,1,0" from="start1" to="end20" depart="257.117588" />
    <trip id="start9Toend20_17" type="connected" color="1,1,0" from="start9" to="end20" depart="259.678511" />
    <trip id="start9Toend20_18" type="connected" color="1,1,0" from="start9" to="end20" depart="260.856165" />
    <trip id="start4Toend21_19" type="connected" color="1,1,0" from="start4" to="end21" depart="262.577396" />
    <trip id="start2Toend20_16" type="connected" color="1,1,0" from="start2" to="end20" depart="262.715432" />
    <trip id="start4Toend21_20" type="connected" color="1,1,0" from="start4" to="end21" depart="263.838321" />
    <trip id="start9Toend20_19" type="connected" color="1,1,0" from="start9" to="end20" depart="267.574549" />
    <trip id="start3Toend19_15" type="connected" color="1,1,0" from="start3" to="end19" depart="268.525795" />
    <trip id="start9Toend20_20" type="connected" color="1,1,0" from="start9" to="end20" depart="271.154199" />
    <trip id="start1Toend20_20" type="connected" color="1,1,0" from="start1" to="end20" depart="271.969451" />
    <trip id="start3Toend19_16" type="connected" color="1,1,0" from="start3" to="end19" depart="274.714883" />
    <trip id="start1Toend20_21" type="connected" color="1,1,0" from="start1" to="end20" depart="283.540159" />
    <trip id="start3Toend19_17" type="connected" color="1,1,0" from="start3" to="end19" depart="284.511228" />
    <trip id="start4Toend21_21" type="connected" color="1,1,0" from="start4" to="end21" depart="284.634203" />
    <trip id="start3Toend19_18" type="connected" color="1,1,0" from="start3" to="end19" depart="284.793616" />
    <trip id="start1Toend20_22" type="connected" color="1,1,0" from="start1" to="end20" depart="285.047204" />
    <trip id="start1Toend20_23" type="connected" color="1,1,0" from="start1" to="end20" depart="286.372843" />
    <trip id="start9Toend20_21" type="connected" color="1,1,0" from="start9" to="end20" depart="288.817485" />
    <trip id="start9Toend20_22" type="connected" color="1,1,0" from="start9" to="end20" depart="290.480922" />
    <trip id="start1Toend20_24" type="connected" color="1,1,0" from="start1" to="end20" depart="293.332716" />
    <trip id="start4Toend21_22" type="connected" color="1,1,0" from="start4" to="end21" depart="299.164765" />
    <trip id="start3Toend19_19" type="connected" color="1,1,0" from="start3" to="end19" depart="304.523172" />
    <trip id="start4Toend21_23" type="connected" color="1,1,0" from="start4" to="end21" depart="311.492887" />
    <trip id="start1Toend20_25" type="connected" color="1,1,0" from="start1" to="end20" depart="315.737353" />
    <trip id="start9Toend20_23" type="connected" color="1,1,0" from="start9" to="end20" depart="323.444047" />
    <trip id="start3Toend19_20" type="connected" color="1,1,0" from="start3" to="end19" depart="323.862349" />
    <trip id="start9Toend20_24" type="connected" color="1,1,0" from="start9" to="end20" depart="325.658947" />
    <trip id="start3Toend19_21" type="connected" color="1,1,0" from="start3" to="end19" depart="330.617881" />
    <trip id="start1Toend20_26" type="connected" color="1,1,0" from="start1" to="end20" depart="331.426789" />
    <trip id="start4Toend21_24" type="connected" color="1,1,0" from="start4" to="end21" depart="331.590900" />
    <trip id="start4Toend21_25" type="connected" color="1,1,0" from="start4" to="end21" depart="332.377804" />
    <trip id="start9Toend20_25" type="connected" color="1,1,0" from="start9" to="end20" depart="334.807356" />
    <trip id="start2Toend20_17" type="connected" color="1,1,0" from="start2" to="end20" depart="338.472733" />
    <trip id="start2Toend20_18" type="connected" color="1,1,0" from="start2" to="end20" depart="340.579646" />
    <trip id="start4Toend21_26" type="connected" color="1,1,0" from="start4" to="end21" depart="340.969277" />
    <trip id="start4Toend21_27" type="connected" color="1,1,0" from="start4" to="end21" depart="341.514151" />
    <trip id="start3Toend19_22" type="connected" color="1,1,0" from="start3" to="end19" depart="342.121512" />
    <trip id="start3Toend19_23" type="connected" color="1,1,0" from="start3" to="end19" depart="347.778411" />
    <trip id="start3Toend19_24" type="connected" color="1,1,0" from="start3" to="end19" depart="350.064775" />
    <trip id="start1Toend20_27" type="connected" color="1,1,0" from="start1" to="end20" depart="350.195991" />
    <trip id="start1Toend20_28" type="connected" color="1,1,0" from="start1" to="end20" depart="360.677377" />
    <trip id="start3Toend19_25" type="connected" color="1,1,0" from="start3" to="end19" depart="360.688702" />
    <trip id="start2Toend20_19" type="connected" color="1,1,0" from="start2" to="end20" depart="361.452381" />
    <trip id="start1Toend20_29" type="connected" color="1,1,0" from="start1" to="end20" depart="363.460677" />
    <trip id="start3Toend19_26" type="connected" color="1,1,0" from="start3" to="end19" depart="369.810047" />
    <trip id="start3Toend19_27" type="connected" color="1,1,0" from="start3" to="end19" depart="373.271359" />
    <trip id="start3Toend19_28" type="connected" color="1,1,0" from="start3" to="end19" depart="373.742052" />
    <trip id="start3Toend19_29" type="connected" color="1,1,0" from="start3" to="end19" depart="375.004458" />
    <trip id="start9Toend20_26" type="connected" color="1,1,0" from="start9" to="end20" depart="377.559576" />
    <trip id="start1Toend20_30" type="connected" color="1,1,0" from="start1" to="end20" depart="383.101649" />
    <trip id="start2Toend20_20" type="connected" color="1,1,0" from="start2" to="end20" depart="385.008126" />
    <trip id="start9Toend20_27" type="connected" color="1,1,0" from="start9" to="end20" depart="385.680897" />
    <trip id="start1Toend20_31" type="connected" color="1,1,0" from="start1" to="end20" depart="391.652269" />
    <trip id="start9Toend20_28" type="connected" color="1,1,0" from="start9" to="end20" depart="393.633821" />
    <trip id="start1Toend20_32" type="connected" color="1,1,0" from="start1" to="end20" depart="394.786187" />
    <trip id="start1Toend20_33" type="connected" color="1,1,0" from="start1" to="end20" depart="406.550361" />
    <trip id="start9Toend20_29" type="connected" color="1,1,0" from="start9" to="end20" depart="411.571087" />
    <trip id="start2Toend20_21" type="connected" color="1,1,0" from="start2" to="end20" depart="413.398221" />
    <trip id="start4Toend21_28" type="connected" color="1,1,0" from="start4" to="end21" depart="417.774372" />
    <trip id="start9Toend20_30" type="connected" color="1,1,0" from="start9" to="end20" depart="418.682195" />
    <trip id="start2Toend20_22" type="connected" color="1,1,0" from="start2" to="end20" depart="418.867978" />
    <trip id="start9Toend20_31" type="connected" color="1,1,0" from="start9" to="end20" depart="422.319103" />
    <trip id="start4Toend21_29" type="connected" color="1,1,0" from="start4" to="end21" depart="423.267159" />
    <trip id="start2Toend20_23" type="connected" color="1,1,0" from="start2" to="end20" depart="425.561020" />
    <trip id="start2Toend20_24" type="connected" color="1,1,0" from="start2" to="end20" depart="426.304298" />
    <trip id="start4Toend21_30" type="connected" color="1,1,0" from="start4" to="end21" depart="426.639231" />
    <trip id="start2Toend20_25" type="connected" color="1,1,0" from="start2" to="end20" depart="426.797117" />
    <trip id="start3Toend19_30" type="connected" color="1,1,0" from="start3" to="end19" depart="427.684862" />
    <trip id="start4Toend21_31" type="connected" color="1,1,0" from="start4" to="end21" depart="433.201517" />
    <trip id="start4Toend21_32" type="connected" color="1,1,0" from="start4" to="end21" depart="435.026535" />
    <trip id="start2Toend20_26" type="connected" color="1,1,0" from="start2" to="end20" depart="443.012327" />
    <trip id="start1Toend20_34" type="connected" color="1,1,0" from="start1" to="end20" depart="443.097989" />
    <trip id="start2Toend20_27" type="connected" color="1,1,0" from="start2" to="end20" depart="445.100529" />
    <trip id="start3Toend19_31" type="connected" color="1,1,0" from="start3" to="end19" depart="446.563944" />
    <trip id="start9Toend20_32" type="connected" color="1,1,0" from="start9" to="end20" depart="446.621122" />
    <trip id="start4Toend21_33" type="connected" color="1,1,0" from="start4" to="end21" depart="450.245455" />
    <trip id="start1Toend20_35" type="connected" color="1,1,0" from="start1" to="end20" depart="454.577949" />
    <trip id="start4Toend21_34" type="connected" color="1,1,0" from="start4" to="end21" depart="456.228983" />
    <trip id="start2Toend20_28" type="connected" color="1,1,0" from="start2" to="end20" depart="462.423919" />
    <trip id="start1Toend20_36" type="connected" color="1,1,0" from="start1" to="end20" depart="462.921058" />
    <trip id="start4Toend21_35" type="connected" color="1,1,0" from="start4" to="end21" depart="471.020599" />
    <trip id="start3Toend19_32" type="connected" color="1,1,0" from="start3" to="end19" depart="481.382667" />
    <trip id="start1Toend20_37" type="connected" color="1,1,0" from="start1" to="end20" depart="481.702567" />
    <trip id="start4Toend21_36" type="connected" color="1,1,0" from="start4" to="end21" depart="488.006682" />
    <trip id="start2Toend20_29" type="connected" color="1,1,0" from="start2" to="end20" depart="493.625470" />
    <trip id="start4Toend21_37" type="connected" color="1,1,0" from="start4" to="end21" depart="496.047485" />
    <trip id="start4Toend21_38" type="connected" color="1,1,0" from="start4" to="end21" depart="496.674981" />
    <trip id="start9Toend20_33" type="connected" color="1,1,0" from="start9" to="end20" depart="497.985074" />
    <trip id="start3Toend19_33" type="connected" color="1,1,0" from="start3" to="end19" depart="508.359080" />
    <trip id="start3Toend19_34" type="connected" color="1,1,0" from="start3" to="end19" depart="512.125085" />
    <trip id="start9Toend20_34" type="connected" color="1,1,0" from="start9" to="end20" depart="512.321339" />
    <trip id="start9Toend20_35" type="connected" color="1,1,0" from="start9" to="end20" depart="513.847082" />
    <trip id="start1Toend20_38" type="connected" color="1,1,0" from="start1" to="end20" depart="516.570424" />
    <trip id="start4Toend21_39" type="connected" color="1,1,0" from="start4" to="end21" depart="518.087218" />
    <trip id="start9Toend20_36" type="connected" color="1,1,0" from="start9" to="end20" depart="521.575412" />
    <trip id="start9Toend20_37" type="connected" color="1,1,0" from="start9" to="end20" depart="522.268692" />
    <trip id="start9Toend20_38" type="connected" color="1,1,0" from="start9" to="end20" depart="532.414719" />
    <trip id="start9Toend20_39" type="connected" color="1,1,0" from="start9" to="end20" depart="535.899910" />
    <trip id="start3Toend19_35" type="connected" color="1,1,0" from="start3" to="end19" depart="539.367573" />
    <trip id="start9Toend20_40" type="connected" color="1,1,0" from="start9" to="end20" depart="542.022456" />
    <trip id="start4Toend21_40" type="connected" color="1,1,0" from="start4" to="end21" depart="542.837499" />
    <trip id="start1Toend20_39" type="connected" color="1,1,0" from="start1" to="end20" depart="547.033444" />
    <trip id="start4Toend21_41" type="connected" color="1,1,0" from="start4" to="end21" depart="548.937282" />
    <trip id="start3Toend19_36" type="connected" color="1,1,0" from="start3" to="end19" depart="549.791807" />
    <trip id="start4Toend21_42" type="connected" color="1,1,0" from="start4" to="end21" depart="551.549955" />
    <trip id="start1Toend20_40" type="connected" color="1,1,0" from="start1" to="end20" depart="552.529302" />
    <trip id="start9Toend20_41" type="connected" color="1,1,0" from="start9" to="end20" depart="558.610488" />
    <trip id="start1Toend20_41" type="connected" color="1,1,0" from="start1" to="end20" depart="560.392312" />
    <trip id="start1Toend20_42" type="connected" color="1,1,0" from="start1" to="end20" depart="560.985264" />
    <trip id="start1Toend20_43" type="connected" color="1,1,0" from="start1" to="end20" depart="563.202373" />
    <trip id="start9Toend20_42" type="connected" color="1,1,0" from="start9" to="end20" depart="567.784354" />
    <trip id="start1Toend20_44" type="connected" color="1,1,0" from="start1" to="end20" depart="575.719520" />
    <trip id="start1Toend20_45" type="connected" color="1,1,0" from="start1" to="end20" depart="576.163288" />
    <trip id="start4Toend21_43" type="connected" color="1,1,0" from="start4" to="end21" depart="581.416374" />
    <trip id="start9Toend20_43" type="connected" color="1,1,0" from="start9" to="end20" depart="581.525173" />
    <trip id="start2Toend20_30" type="connected" color="1,1,0" from="start2" to="end20" depart="582.540279" />
    <trip id="start2Toend20_31" type="connected" color="1,1,0" from="start2" to="end20" depart="583.740395" />
    <trip id="start2Toend20_32" type="connected" color="1,1,0" from="start2" to="end20" depart="585.045885" />
    <trip id="start1Toend20_46" type="connected" color="1,1,0" from="start1" to="end20" depart="588.198554" />
    <trip id="start1Toend20_47" type="connected" color="1,1,0" from="start1" to="end20" depart="590.830068" />
    <trip id="start9Toend20_44" type="connected" color="1,1,0" from="start9" to="end20" depart="594.848338" />
    <trip id="start3Toend19_37" type="connected" color="1,1,0" from="start3" to="end19" depart="606.899316" />
    <trip id="start1Toend20_48" type="connected" color="1,1,0" from="start1" to="end20" depart="607.001005" />
    <trip id="start4Toend21_44" type="connected" color="1,1,0" from="start4" to="end21" depart="608.074319" />
    <trip id="start2Toend20_33" type="connected" color="1,1,0" from="start2" to="end20" depart="610.223967" />
    <trip id="start1Toend20_49" type="connected" color="1,1,0" from="start1" to="end20" depart="611.087931" />
    <trip id="start3Toend19_38" type="connected" color="1,1,0" from="start3" to="end19" depart="614.234567" />
    <trip id="start1Toend20_50" type="connected" color="1,1,0" from="start1" to="end20" depart="616.885888" />
    <trip id="start2Toend20_34" type="connected" color="1,1,0" from="start2" to="end20" depart="619.190383" />
    <trip id="start3Toend19_39" type="connected" color="1,1,0" from="start3" to="end19" depart="626.034175" />
    <trip id="start3Toend19_40" type="connected" color="1,1,0" from="start3" to="end19" depart="628.875790" />
    <trip id="start3Toend19_41" type="connected" color="1,1,0" from="start3" to="end19" depart="632.830960" />
    <trip id="start1Toend20_51" type="connected" color="1,1,0" from="start1" to="end20" depart="638.964480" />
    <trip id="start2Toend20_35" type="connected" color="1,1,0" from="start2" to="end20" depart="640.288012" />
    <trip id="start2Toend20_36" type="connected" color="1,1,0" from="start2" to="end20" depart="646.624345" />
    <trip id="start1Toend20_52" type="connected" color="1,1,0" from="start1" to="end20" depart="647.509851" />
    <trip id="start3Toend19_42" type="connected" color="1,1,0" from="start3" to="end19" depart="650.957630" />
    <trip id="start4Toend21_45" type="connected" color="1,1,0" from="start4" to="end21" depart="653.792228" />
    <trip id="start1Toend20_53" type="connected" color="1,1,0" from="start1" to="end20" depart="658.507513" />
    <trip id="start3Toend19_43" type="connected" color="1,1,0" from="start3" to="end19" depart="661.169391" />
    <trip id="start2Toend20_37" type="connected" color="1,1,0" from="start2" to="end20" depart="661.629480" />
    <trip id="start2Toend20_38" type="connected" color="1,1,0" from="start2" to="end20" depart="666.169844" />
    <trip id="start2Toend20_39" type="connected" color="1,1,0" from="start2" to="end20" depart="670.126028" />
    <trip id="start2Toend20_40" type="connected" color="1,1,0" from="start2" to="end20" depart="687.720227" />
    <trip id="start9Toend20_45" type="connected" color="1,1,0" from="start9" to="end20" depart="689.027584" />
    <trip id="start3Toend19_44" type="connected" color="1,1,0" from="start3" to="end19" depart="694.649111" />
    <trip id="start2Toend20_41" type="connected" color="1,1,0" from="start2" to="end20" depart="698.193450" />
    <trip id="start2Toend20_42" type="connected" color="1,1,0" from="start2" to="end20" depart="700.484179" />
    <trip id="start2Toend20_43" type="connected" color="1,1,0" from="start2" to="end20" depart="700.800141" />
    <trip id="start1Toend20_54" type="connected" color="1,1,0" from="start1" to="end20" depart="704.390299" />
    <trip id="start2Toend20_44" type="connected" color="1,1,0" from="start2" to="end20" depart="704.844607" />
    <trip id="start9Toend20_46" type="connected" color="1,1,0" from="start9" to="end20" depart="708.728337" />
    <trip id="start9Toend20_47" type="connected" color="1,1,0" from="start9" to="end20" depart="710.307954" />
    <trip id="start9Toend20_48" type="connected" color="1,1,0" from="start9" to="end20" depart="712.762430" />
    <trip id="start9Toend20_49" type="connected" color="1,1,0" from="start9" to="end20" depart="718.915755" />
    <trip id="start1Toend20_55" type="connected" color="1,1,0" from="start1" to="end20" depart="721.234185" />
    <trip id="start9Toend20_50" type="connected" color="1,1,0" from="start9" to="end20" depart="724.567664" />
    <trip id="start9Toend20_51" type="connected" color="1,1,0" from="start9" to="end20" depart="725.315375" />
    <trip id="start4Toend21_46" type="connected" color="1,1,0" from="start4" to="end21" depart="731.257865" />
    <trip id="start1Toend20_56" type="connected" color="1,1,0" from="start1" to="end20" depart="741.160004" />
    <trip id="start4Toend21_47" type="connected" color="1,1,0" from="start4" to="end21" depart="747.579037" />
    <trip id="start1Toend20_57" type="connected" color="1,1,0" from="start1" to="end20" depart="751.440926" />
    <trip id="start3Toend19_45" type="connected" color="1,1,0" from="start3" to="end19" depart="752.086028" />
    <trip id="start3Toend19_46" type="connected" color="1,1,0" from="start3" to="end19" depart="758.969404" />
    <trip id="start2Toend20_45" type="connected" color="1,1,0" from="start2" to="end20" depart="761.170938" />
    <trip id="start2Toend20_46" type="connected" color="1,1,0" from="start2" to="end20" depart="768.857041" />
    <trip id="start1Toend20_58" type="connected" color="1,1,0" from="start1" to="end20" depart="769.585801" />
    <trip id="start1Toend20_59" type="connected" color="1,1,0" from="start1" to="end20" depart="771.336381" />
    <trip id="start2Toend20_47" type="connected" color="1,1,0" from="start2" to="end20" depart="772.345649" />
    <trip id="start2Toend20_48" type="connected" color="1,1,0" from="start2" to="end20" depart="773.886922" />
    <trip id="start9Toend20_52" type="connected" color="1,1,0" from="start9" to="end20" depart="774.735500" />
    <trip id="start1Toend20_60" type="connected" color="1,1,0" from="start1" to="end20" depart="775.018522" />
    <trip id="start4Toend21_48" type="connected" color="1,1,0" from="start4" to="end21" depart="778.529880" />
    <trip id="start3Toend19_47" type="connected" color="1,1,0" from="start3" to="end19" depart="780.474286" />