<?xml version="1.0" encoding="UTF-8"?>

<routes>

	<route id="route0" edges="start1 end1" />
    <route id="route1" edges="start1 end2" />
    <route id="route2" edges="start2 end1" />
    <route id="route3" edges="start2 end2" />


    <vType id="conventional" vClass="passenger" sigma="1" maxSpeed="40.0" color="red" accel="10.0"/>
    <vType id="connected" vClass="passenger" tau="1.3" maxSpeed="28.00" lcCooperative="0.0" color="1,1,0" lcStrategic="1.0" accel="3.0" decel="1.5" emergencyDecel="4.5" lcSpeedGain="0.3" sigma="0.0" lcKeepRight="0.3"/>
    <vType id="connected_pCatchupFollower" vClass="passenger" emergencyDecel="4.5" length="5" tau="0.1" maxSpeed="28.00" color="1,1,0" accel="10.3" decel="1.7" sigma="0.0" minGap="2.0"/>
    <vType id="connected_pCatchup" vClass="passenger" tau="0.1" emergencyDecel="4.5" maxSpeed="28.00" color="0,0.8,0.3" accel="10.3" decel="1.7" sigma="0.0" minGap="2.0"/>
    <vType id="connected_pFollower" vClass="passenger" tau="0.1" maxSpeed="28.00" color="1,1,0" accel="10.3" decel="1.7" sigma="0.0"  minGap="2.0" />
    <vType id="connected_pLeader" vClass="passenger" length="5" tau="1.3" maxSpeed="28.00" lcCooperative="0.0" color="1,1,0" lcStrategic="1.0" accel="2.0" decel="1.5" emergencyDecel="4.5" lcSpeedGain="0.3" sigma="0.0" lcKeepRight="0.3"/>
    


	
    <trip id="start1Toend1_0" type="connected" color="1,1,0" from="start1" to="end1" depart="0.000000" />
    <trip id="start2Toend1_0" type="connected" color="1,1,0" from="start2" to="end1" depart="0.000000" />
    <trip id="start1Toend2_0" type="connected" color="1,1,0" from="start1" to="end2" depart="0.000000" />
    <trip id="start2Toend2_0" type="connected" color="1,1,0" from="start2" to="end2" depart="0.000000" />
    <trip id="start2Toend1_1" type="connected" color="1,1,0" from="start2" to="end1" depart="11.589709" />
    <trip id="start2Toend1_2" type="connected" color="1,1,0" from="start2" to="end1" depart="12.506078" />
    <trip id="start1Toend2_1" type="connected" color="1,1,0" from="start1" to="end2" depart="18.724546" />
    <trip id="start1Toend2_2" type="connected" color="1,1,0" from="start1" to="end2" depart="60.074558" />
    <trip id="start1Toend1_1" type="connected" color="1,1,0" from="start1" to="end1" depart="95.846601" />
    <trip id="start2Toend1_3" type="connected" color="1,1,0" from="start2" to="end1" depart="107.768068" />
    <trip id="start2Toend1_4" type="connected" color="1,1,0" from="start2" to="end1" depart="117.017207" />
    <trip id="start1Toend2_3" type="connected" color="1,1,0" from="start1" to="end2" depart="210.809573" />
    <trip id="start1Toend2_4" type="connected" color="1,1,0" from="start1" to="end2" depart="255.528183" />
    <trip id="start1Toend1_2" type="connected" color="1,1,0" from="start1" to="end1" depart="302.874681" />
    <trip id="start1Toend1_3" type="connected" color="1,1,0" from="start1" to="end1" depart="305.551638" />
    <trip id="start1Toend2_5" type="connected" color="1,1,0" from="start1" to="end2" depart="351.206246" />
    <trip id="start1Toend2_6" type="connected" color="1,1,0" from="start1" to="end2" depart="423.999167" />
    <trip id="start2Toend1_5" type="connected" color="1,1,0" from="start2" to="end1" depart="463.616003" />
    <trip id="start1Toend1_4" type="connected" color="1,1,0" from="start1" to="end1" depart="497.127107" />
    <trip id="start2Toend1_6" type="connected" color="1,1,0" from="start2" to="end1" depart="509.360092" />
    <trip id="start2Toend1_7" type="connected" color="1,1,0" from="start2" to="end1" depart="537.868481" />
    <trip id="start1Toend1_5" type="connected" color="1,1,0" from="start1" to="end1" depart="579.523921" />
    <trip id="start2Toend1_8" type="connected" color="1,1,0" from="start2" to="end1" depart="660.601903" />
    <trip id="start2Toend2_1" type="connected" color="1,1,0" from="start2" to="end2" depart="660.967968" />
    <trip id="start1Toend2_7" type="connected" color="1,1,0" from="start1" to="end2" depart="689.553514" />
    <trip id="start2Toend2_2" type="connected" color="1,1,0" from="start2" to="end2" depart="733.063552" />
    <trip id="start1Toend2_8" type="connected" color="1,1,0" from="start1" to="end2" depart="762.063198" />
    <trip id="start2Toend1_9" type="connected" color="1,1,0" from="start2" to="end1" depart="773.580109" />
    <trip id="start2Toend2_3" type="connected" color="1,1,0" from="start2" to="end2" depart="818.720373" />
    <trip id="start1Toend1_6" type="connected" color="1,1,0" from="start1" to="end1" depart="822.392809" />
    <trip id="start1Toend2_9" type="connected" color="1,1,0" from="start1" to="end2" depart="897.521135" />
    <trip id="start2Toend2_4" type="connected" color="1,1,0" from="start2" to="end2" depart="911.965938" />
    <trip id="start2Toend1_10" type="connected" color="1,1,0" from="start2" to="end1" depart="940.488255" />
    <trip id="start2Toend1_11" type="connected" color="1,1,0" from="start2" to="end1" depart="959.507601" />
    <trip id="start1Toend1_7" type="connected" color="1,1,0" from="start1" to="end1" depart="990.243029" />
    <trip id="start2Toend1_12" type="connected" color="1,1,0" from="start2" to="end1" depart="998.906650" />
    <trip id="start1Toend2_10" type="connected" color="1,1,0" from="start1" to="end2" depart="1061.167014" />
    <trip id="start1Toend1_8" type="connected" color="1,1,0" from="start1" to="end1" depart="1061.679438" />
    <trip id="start1Toend2_11" type="connected" color="1,1,0" from="start1" to="end2" depart="1074.364369" />
    <trip id="start1Toend1_9" type="connected" color="1,1,0" from="start1" to="end1" depart="1090.587881" />
    <trip id="start2Toend2_5" type="connected" color="1,1,0" from="start2" to="end2" depart="1135.836464" />
    <trip id="start1Toend2_12" type="connected" color="1,1,0" from="start1" to="end2" depart="1168.828923" />
    <trip id="start1Toend2_13" type="connected" color="1,1,0" from="start1" to="end2" depart="1226.331674" />
    <trip id="start1Toend2_14" type="connected" color="1,1,0" from="start1" to="end2" depart="1240.042756" />
    <trip id="start2Toend1_13" type="connected" color="1,1,0" from="start2" to="end1" depart="1250.432137" />
    <trip id="start1Toend1_10" type="connected" color="1,1,0" from="start1" to="end1" depart="1260.420141" />
    <trip id="start2Toend2_6" type="connected" color="1,1,0" from="start2" to="end2" depart="1288.764129" />
    <trip id="start2Toend2_7" type="connected" color="1,1,0" from="start2" to="end2" depart="1321.608049" />
    <trip id="start2Toend1_14" type="connected" color="1,1,0" from="start2" to="end1" depart="1333.149745" />
    <trip id="start2Toend1_15" type="connected" color="1,1,0" from="start2" to="end1" depart="1387.591403" />
    <trip id="start2Toend1_16" type="connected" color="1,1,0" from="start2" to="end1" depart="1392.121729" />
    <trip id="start2Toend1_17" type="connected" color="1,1,0" from="start2" to="end1" depart="1413.331555" />
    <trip id="start1Toend1_11" type="connected" color="1,1,0" from="start1" to="end1" depart="1419.331252" />
    <trip id="start1Toend2_15" type="connected" color="1,1,0" from="start1" to="end2" depart="1429.251708" />
    <trip id="start2Toend2_8" type="connected" color="1,1,0" from="start2" to="end2" depart="1435.179150" />
    <trip id="start2Toend1_18" type="connected" color="1,1,0" from="start2" to="end1" depart="1448.544669" />
    <trip id="start2Toend2_9" type="connected" color="1,1,0" from="start2" to="end2" depart="1449.338125" />
    <trip id="start1Toend1_12" type="connected" color="1,1,0" from="start1" to="end1" depart="1509.954816" />
    <trip id="start2Toend2_10" type="connected" color="1,1,0" from="start2" to="end2" depart="1532.810210" />
    <trip id="start2Toend2_11" type="connected" color="1,1,0" from="start2" to="end2" depart="1546.129311" />
    <trip id="start1Toend1_13" type="connected" color="1,1,0" from="start1" to="end1" depart="1597.859400" />
    <trip id="start1Toend1_14" type="connected" color="1,1,0" from="start1" to="end1" depart="1621.868590" />
    <trip id="start2Toend2_12" type="connected" color="1,1,0" from="start2" to="end2" depart="1656.592281" />
    <trip id="start1Toend2_16" type="connected" color="1,1,0" from="start1" to="end2" depart="1715.639262" />
    <trip id="start2Toend1_19" type="connected" color="1,1,0" from="start2" to="end1" depart="1723.031287" />
    <trip id="start2Toend2_13" type="connected" color="1,1,0" from="start2" to="end2" depart="1732.971812" />
    <trip id="start1Toend2_17" type="connected" color="1,1,0" from="start1" to="end2" depart="1761.706826" />
    <trip id="start1Toend1_15" type="connected" color="1,1,0" from="start1" to="end1" depart="1825.012796" />
    <trip id="start1Toend1_16" type="connected" color="1,1,0" from="start1" to="end1" depart="1830.210942" />
    <trip id="start1Toend2_18" type="connected" color="1,1,0" from="start1" to="end2" depart="1835.090045" />
    <trip id="start1Toend1_17" type="connected" color="1,1,0" from="start1" to="end1" depart="1851.985957" />
    <trip id="start1Toend2_19" type="connected" color="1,1,0" from="start1" to="end2" depart="1902.883457" />
    <trip id="start1Toend2_20" type="connected" color="1,1,0" from="start1" to="end2" depart="1935.971590" />
    <trip id="start1Toend2_21" type="connected" color="1,1,0" from="start1" to="end2" depart="1950.857346" />
    <trip id="start2Toend1_20" type="connected" color="1,1,0" from="start2" to="end1" depart="1953.936939" />
    <trip id="start2Toend2_14" type="connected" color="1,1,0" from="start2" to="end2" depart="1974.357398" />
    <trip id="start1Toend2_22" type="connected" color="1,1,0" from="start1" to="end2" depart="1981.030796" />
    <trip id="start1Toend2_23" type="connected" color="1,1,0" from="start1" to="end2" depart="2011.699116" />
    <trip id="start1Toend2_24" type="connected" color="1,1,0" from="start1" to="end2" depart="2022.289264" />
    <trip id="start1Toend1_18" type="connected" color="1,1,0" from="start1" to="end1" depart="2035.729758" />
    <trip id="start2Toend1_21" type="connected" color="1,1,0" from="start2" to="end1" depart="2082.758995" />
    <trip id="start1Toend2_25" type="connected" color="1,1,0" from="start1" to="end2" depart="2138.362450" />
    <trip id="start2Toend2_15" type="connected" color="1,1,0" from="start2" to="end2" depart="2156.477539" />
    <trip id="start2Toend2_16" type="connected" color="1,1,0" from="start2" to="end2" depart="2224.816183" />
    <trip id="start2Toend1_22" type="connected" color="1,1,0" from="start2" to="end1" depart="2228.202032" />
    <trip id="start2Toend1_23" type="connected" color="1,1,0" from="start2" to="end1" depart="2245.336298" />
    <trip id="start1Toend2_26" type="connected" color="1,1,0" from="start1" to="end2" depart="2254.959885" />
    <trip id="start2Toend2_17" type="connected" color="1,1,0" from="start2" to="end2" depart="2338.392486" />
    <trip id="start2Toend1_24" type="connected" color="1,1,0" from="start2" to="end1" depart="2357.870517" />
    <trip id="start1Toend1_19" type="connected" color="1,1,0" from="start1" to="end1" depart="2376.597325" />
    <trip id="start1Toend1_20" type="connected" color="1,1,0" from="start1" to="end1" depart="2412.785293" />
    <trip id="start1Toend2_27" type="connected" color="1,1,0" from="start1" to="end2" depart="2433.325296" />
    <trip id="start1Toend1_21" type="connected" color="1,1,0" from="start1" to="end1" depart="2434.210793" />
    <trip id="start2Toend1_25" type="connected" color="1,1,0" from="start2" to="end1" depart="2457.208367" />
    <trip id="start2Toend2_18" type="connected" color="1,1,0" from="start2" to="end2" depart="2498.262259" />
    <trip id="start1Toend2_28" type="connected" color="1,1,0" from="start1" to="end2" depart="2512.345056" />
    <trip id="start2Toend2_19" type="connected" color="1,1,0" from="start2" to="end2" depart="2544.406151" />
    <trip id="start2Toend1_26" type="connected" color="1,1,0" from="start2" to="end1" depart="2564.334100" />
    <trip id="start1Toend1_22" type="connected" color="1,1,0" from="start1" to="end1" depart="2585.572423" />
    <trip id="start1Toend1_23" type="connected" color="1,1,0" from="start1" to="end1" depart="2621.222098" />
    <trip id="start2Toend2_20" type="connected" color="1,1,0" from="start2" to="end2" depart="2627.954454" />
    <trip id="start2Toend1_27" type="connected" color="1,1,0" from="start2" to="end1" depart="2655.005422" />
    <trip id="start1Toend2_29" type="connected" color="1,1,0" from="start1" to="end2" depart="2669.201530" />
    <trip id="start2Toend1_28" type="connected" color="1,1,0" from="start2" to="end1" depart="2676.874147" />
    <trip id="start1Toend2_30" type="connected" color="1,1,0" from="start1" to="end2" depart="2695.388674" />
    <trip id="start1Toend2_31" type="connected" color="1,1,0" from="start1" to="end2" depart="2696.405382" />
    <trip id="start1Toend2_32" type="connected" color="1,1,0" from="start1" to="end2" depart="2700.912203" />
    <trip id="start2Toend2_21" type="connected" color="1,1,0" from="start2" to="end2" depart="2719.802448" />
    <trip id="start1Toend2_33" type="connected" color="1,1,0" from="start1" to="end2" depart="2728.020982" />
    <trip id="start2Toend1_29" type="connected" color="1,1,0" from="start2" to="end1" depart="2739.240994" />
    <trip id="start1Toend1_24" type="connected" color="1,1,0" from="start1" to="end1" depart="2761.837764" />
    <trip id="start2Toend1_30" type="connected" color="1,1,0" from="start2" to="end1" depart="2762.607388" />
    <trip id="start2Toend1_31" type="connected" color="1,1,0" from="start2" to="end1" depart="2770.063561" />
    <trip id="start1Toend1_25" type="connected" color="1,1,0" from="start1" to="end1" depart="2791.091563" />
    <trip id="start1Toend1_26" type="connected" color="1,1,0" from="start1" to="end1" depart="2813.923687" />
    <trip id="start1Toend1_27" type="connected" color="1,1,0" from="start1" to="end1" depart="2860.019854" />
    <trip id="start2Toend1_32" type="connected" color="1,1,0" from="start2" to="end1" depart="2864.447375" />
    <trip id="start2Toend1_33" type="connected" color="1,1,0" from="start2" to="end1" depart="2871.092573" />
    <trip id="start1Toend2_34" type="connected" color="1,1,0" from="start1" to="end2" depart="2873.380191" />
    <trip id="start1Toend2_35" type="connected" color="1,1,0" from="start1" to="end2" depart="2874.077601" />
    <trip id="start2Toend1_34" type="connected" color="1,1,0" from="start2" to="end1" depart="2881.531079" />
    <trip id="start2Toend2_22" type="connected" color="1,1,0" from="start2" to="end2" depart="2907.196849" />
    <trip id="start1Toend1_28" type="connected" color="1,1,0" from="start1" to="end1" depart="2946.627880" />
    <trip id="start1Toend1_29" type="connected" color="1,1,0" from="start1" to="end1" depart="2946.855008" />
    <trip id="start1Toend2_36" type="connected" color="1,1,0" from="start1" to="end2" depart="2953.940119" />
    <trip id="start1Toend1_30" type="connected" color="1,1,0" from="start1" to="end1" depart="2954.960534" />
    <trip id="start2Toend2_23" type="connected" color="1,1,0" from="start2" to="end2" depart="2965.436520" />
    <trip id="start2Toend2_24" type="connected" color="1,1,0" from="start2" to="end2" depart="2990.614744" />
    <trip id="start1Toend1_31" type="connected" color="1,1,0" from="start1" to="end1" depart="2991.988599" />
    <trip id="start1Toend2_37" type="connected" color="1,1,0" from="start1" to="end2" depart="3008.140517" />
    <trip id="start1Toend1_32" type="connected" color="1,1,0" from="start1" to="end1" depart="3014.875585" />
    <trip id="start1Toend2_38" type="connected" color="1,1,0" from="start1" to="end2" depart="3029.168637" />
    <trip id="start2Toend2_25" type="connected" color="1,1,0" from="start2" to="end2" depart="3036.623714" />
    <trip id="start2Toend2_26" type="connected" color="1,1,0" from="start2" to="end2" depart="3104.389688" />
    <trip id="start1Toend2_39" type="connected" color="1,1,0" from="start1" to="end2" depart="3110.948051" />
    <trip id="start1Toend2_40" type="connected" color="1,1,0" from="start1" to="end2" depart="3123.828374" />
    <trip id="start1Toend2_41" type="connected" color="1,1,0" from="start1" to="end2" depart="3184.603061" />
    <trip id="start2Toend1_35" type="connected" color="1,1,0" from="start2" to="end1" depart="3256.280860" />
    <trip id="start1Toend2_42" type="connected" color="1,1,0" from="start1" to="end2" depart="3269.709983" />
    <trip id="start2Toend1_36" type="connected" color="1,1,0" from="start2" to="end1" depart="3279.902778" />
    <trip id="start2Toend1_37" type="connected" color="1,1,0" from="start2" to="end1" depart="3309.233613" />
    <trip id="start1Toend2_43" type="connected" color="1,1,0" from="start1" to="end2" depart="3349.156622" />
    <trip id="start2Toend2_27" type="connected" color="1,1,0" from="start2" to="end2" depart="3356.568639" />
    <trip id="start1Toend1_33" type="connected" color="1,1,0" from="start1" to="end1" depart="3381.681969" />
    <trip id="start2Toend2_28" type="connected" color="1,1,0" from="start2" to="end2" depart="3461.240388" />
    <trip id="start1Toend2_44" type="connected" color="1,1,0" from="start1" to="end2" depart="3481.410098" />
    <trip id="start2Toend1_38" type="connected" color="1,1,0" from="start2" to="end1" depart="3497.558228" />
    <trip id="start2Toend1_39" type="connected" color="1,1,0" from="start2" to="end1" depart="3522.533531" />
    <trip id="start2Toend2_29" type="connected" color="1,1,0" from="start2" to="end2" depart="3574.142321" />
    <trip id="start1Toend2_45" type="connected" color="1,1,0" from="start1" to="end2" depart="3581.065532" />
    <trip id="start2Toend2_30" type="connected" color="1,1,0" from="start2" to="end2" depart="3603.888202" />
    <trip id="start2Toend1_40" type="connected" color="1,1,0" from="start2" to="end1" depart="3649.125920" />
    <trip id="start1Toend1_34" type="connected" color="1,1,0" from="start1" to="end1" depart="3654.500385" />
    <trip id="start2Toend1_41" type="connected" color="1,1,0" from="start2" to="end1" depart="3656.555040" />
    <trip id="start2Toend2_31" type="connected" color="1,1,0" from="start2" to="end2" depart="3681.069916" />
    <trip id="start1Toend2_46" type="connected" color="1,1,0" from="start1" to="end2" depart="3686.002614" />
    <trip id="start1Toend2_47" type="connected" color="1,1,0" from="start1" to="end2" depart="3740.263101" />
    <trip id="start1Toend1_35" type="connected" color="1,1,0" from="start1" to="end1" depart="3767.654554" />
    <trip id="start1Toend1_36" type="connected" color="1,1,0" from="start1" to="end1" depart="3867.633703" />
    <trip id="start2Toend2_32" type="connected" color="1,1,0" from="start2" to="end2" depart="3867.817497" />
    <trip id="start1Toend2_48" type="connected" color="1,1,0" from="start1" to="end2" depart="3893.183804" />
    <trip id="start2Toend1_42" type="connected" color="1,1,0" from="start2" to="end1" depart="3927.996733" />
    <trip id="start1Toend2_49" type="connected" color="1,1,0" from="start1" to="end2" depart="3957.616306" />
    <trip id="start1Toend2_50" type="connected" color="1,1,0" from="start1" to="end2" depart="3987.050646" />
    <trip id="start2Toend2_33" type="connected" color="1,1,0" from="start2" to="end2" depart="4032.374680" />
    <trip id="start1Toend2_51" type="connected" color="1,1,0" from="start1" to="end2" depart="4059.767588" />
    <trip id="start1Toend2_52" type="connected" color="1,1,0" from="start1" to="end2" depart="4076.292954" />
    <trip id="start2Toend1_43" type="connected" color="1,1,0" from="start2" to="end1" depart="4117.342964" />
    <trip id="start1Toend1_37" type="connected" color="1,1,0" from="start1" to="end1" depart="4129.507092" />
    <trip id="start1Toend1_38" type="connected" color="1,1,0" from="start1" to="end1" depart="4200.971826" />
    <trip id="start2Toend1_44" type="connected" color="1,1,0" from="start2" to="end1" depart="4228.899523" />
    <trip id="start1Toend1_39" type="connected" color="1,1,0" from="start1" to="end1" depart="4238.206513" />
    <trip id="start1Toend2_53" type="connected" color="1,1,0" from="start1" to="end2" depart="4243.356476" />
    <trip id="start1Toend1_40" type="connected" color="1,1,0" from="start1" to="end1" depart="4249.500526" />
    <trip id="start2Toend2_34" type="connected" color="1,1,0" from="start2" to="end2" depart="4304.861738" />
    <trip id="start2Toend1_45" type="connected" color="1,1,0" from="start2" to="end1" depart="4369.671826" />
    <trip id="start2Toend2_35" type="connected" color="1,1,0" from="start2" to="end2" depart="4373.478374" />
    <trip id="start1Toend1_41" type="connected" color="1,1,0" from="start1" to="end1" depart="4382.596717" />
    <trip id="start1Toend2_54" type="connected" color="1,1,0" from="start1" to="end2" depart="4391.831420" />
    <trip id="start1Toend1_42" type="connected" color="1,1,0" from="start1" to="end1" depart="4405.213429" />
    <trip id="start1Toend2_55" type="connected" color="1,1,0" from="start1" to="end2" depart="4407.744523" />
    <trip id="start2Toend1_46" type="connected" color="1,1,0" from="start2" to="end1" depart="4445.547810" />
    <trip id="start2Toend1_47" type="connected" color="1,1,0" from="start2" to="end1" depart="4448.112430" />
    <trip id="start1Toend1_43" type="connected" color="1,1,0" from="start1" to="end1" depart="4450.429348" />
    <trip id="start1Toend2_56" type="connected" color="1,1,0" from="start1" to="end2" depart="4463.924969" />
    <trip id="start1Toend1_44" type="connected" color="1,1,0" from="start1" to="end1" depart="4492.939072" />
    <trip id="start2Toend2_36" type="connected" color="1,1,0" from="start2" to="end2" depart="4497.694486" />
    <trip id="start2Toend2_37" type="connected" color="1,1,0" from="start2" to="end2" depart="4509.668594" />
    <trip id="start1Toend2_57" type="connected" color="1,1,0" from="start1" to="end2" depart="4529.967201" />
    <trip id="start1Toend1_45" type="connected" color="1,1,0" from="start1" to="end1" depart="4539.286099" />
    <trip id="start1Toend1_46" type="connected" color="1,1,0" from="start1" to="end1" depart="4545.867584" />
    <trip id="start1Toend1_47" type="connected" color="1,1,0" from="start1" to="end1" depart="4560.356919" />
    <trip id="start2Toend1_48" type="connected" color="1,1,0" from="start2" to="end1" depart="4561.007388" />
    <trip id="start2Toend1_49" type="connected" color="1,1,0" from="start2" to="end1" depart="4569.196787" />
    <trip id="start2Toend2_38" type="connected" color="1,1,0" from="start2" to="end2" depart="4584.580114" />
    <trip id="start1Toend2_58" type="connected" color="1,1,0" from="start1" to="end2" depart="4586.841230" />
    <trip id="start1Toend2_59" type="connected" color="1,1,0" from="start1" to="end2" depart="4595.990755" />
    <trip id="start1Toend1_48" type="connected" color="1,1,0" from="start1" to="end1" depart="4642.436196" />
    <trip id="start1Toend2_60" type="connected" color="1,1,0" from="start1" to="end2" depart="4659.051328" />
    <trip id="start1Toend1_49" type="connected" color="1,1,0" from="start1" to="end1" depart="4757.474304" />
    <trip id="start1Toend1_50" type="connected" color="1,1,0" from="start1" to="end1" depart="4841.966070" />
    <trip id="start1Toend2_61" type="connected" color="1,1,0" from="start1" to="end2" depart="4902.044244" />
    <trip id="start2Toend1_50" type="connected" color="1,1,0" from="start2" to="end1" depart="5032.987042" />
    <trip id="start2Toend1_51" type="connected" color="1,1,0" from="start2" to="end1" depart="5046.572869" />
    <trip id="start2Toend2_39" type="connected" color="1,1,0" from="start2" to="end2" depart="5057.703871" />
    <trip id="start2Toend1_52" type="connected" color="1,1,0" from="start2" to="end1" depart="5069.860377" />
    <trip id="start2Toend2_40" type="connected" color="1,1,0" from="start2" to="end2" depart="5116.350007" />
    <trip id="start2Toend2_41" type="connected" color="1,1,0" from="start2" to="end2" depart="5144.423796" />
    <trip id="start1Toend2_62" type="connected" color="1,1,0" from="start1" to="end2" depart="5161.679564" />
    <trip id="start2Toend1_53" type="connected" color="1,1,0" from="start2" to="end1" depart="5174.317649" />
    <trip id="start2Toend2_42" type="connected" color="1,1,0" from="start2" to="end2" depart="5229.608561" />
    <trip id="start1Toend2_63" type="connected" color="1,1,0" from="start1" to="end2" depart="5243.315535" />
    <trip id="start2Toend1_54" type="connected" color="1,1,0" from="start2" to="end1" depart="5246.046496" />
    <trip id="start2Toend2_43" type="connected" color="1,1,0" from="start2" to="end2" depart="5273.430536" />
    <trip id="start2Toend2_44" type="connected" color="1,1,0" from="start2" to="end2" depart="5276.042524" />
    <trip id="start1Toend2_64" type="connected" color="1,1,0" from="start1" to="end2" depart="5379.484341" />
    <trip id="start2Toend1_55" type="connected" color="1,1,0" from="start2" to="end1" depart="5403.372779" />
    <trip id="start2Toend2_45" type="connected" color="1,1,0" from="start2" to="end2" depart="5403.998645" />
    <trip id="start1Toend1_51" type="connected" color="1,1,0" from="start1" to="end1" depart="5417.124921" />
    <trip id="start1Toend1_52" type="connected" color="1,1,0" from="start1" to="end1" depart="5429.421110" />
    <trip id="start2Toend2_46" type="connected" color="1,1,0" from="start2" to="end2" depart="5439.667429" />
    <trip id="start1Toend2_65" type="connected" color="1,1,0" from="start1" to="end2" depart="5452.267121" />
    <trip id="start1Toend2_66" type="connected" color="1,1,0" from="start1" to="end2" depart="5471.167935" />
    <trip id="start1Toend2_67" type="connected" color="1,1,0" from="start1" to="end2" depart="5480.534032" />
    <trip id="start2Toend1_56" type="connected" color="1,1,0" from="start2" to="end1" depart="5486.947265" />
    <trip id="start1Toend1_53" type="connected" color="1,1,0" from="start1" to="end1" depart="5552.965769" />
    <trip id="start2Toend2_47" type="connected" color="1,1,0" from="start2" to="end2" depart="5555.408668" />
    <trip id="start2Toend1_57" type="connected" color="1,1,0" from="start2" to="end1" depart="5570.457956" />
    <trip id="start2Toend1_58" type="connected" color="1,1,0" from="start2" to="end1" depart="5575.757367" />
    <trip id="start1Toend1_54" type="connected" color="1,1,0" from="start1" to="end1" depart="5582.031984" />
    <trip id="start1Toend2_68" type="connected" color="1,1,0" from="start1" to="end2" depart="5597.857756" />
    <trip id="start2Toend1_59" type="connected" color="1,1,0" from="start2" to="end1" depart="5633.194836" />
    <trip id="start2Toend2_48" type="connected" color="1,1,0" from="start2" to="end2" depart="5641.400916" />
    <trip id="start2Toend1_60" type="connected" color="1,1,0" from="start2" to="end1" depart="5643.182029" />
    <trip id="start1Toend1_55" type="connected" color="1,1,0" from="start1" to="end1" depart="5651.036938" />
    <trip id="start1Toend1_56" type="connected" color="1,1,0" from="start1" to="end1" depart="5705.959031" />
    <trip id="start1Toend1_57" type="connected" color="1,1,0" from="start1" to="end1" depart="5739.181695" />
    <trip id="start2Toend2_49" type="connected" color="1,1,0" from="start2" to="end2" depart="5759.873173" />
    <trip id="start2Toend2_50" type="connected" color="1,1,0" from="start2" to="end2" depart="5789.766640" />
    <trip id="start1Toend1_58" type="connected" color="1,1,0" from="start1" to="end1" depart="5802.450386" />
    <trip id="start1Toend2_69" type="connected" color="1,1,0" from="start1" to="end2" depart="5826.988532" />
    <trip id="start1Toend1_59" type="connected" color="1,1,0" from="start1" to="end1" depart="5840.936538" />
    <trip id="start2Toend1_61" type="connected" color="1,1,0" from="start2" to="end1" depart="5863.635487" />
    <trip id="start1Toend2_70" type="connected" color="1,1,0" from="start1" to="end2" depart="5919.673220" />
    <trip id="start1Toend1_60" type="connected" color="1,1,0" from="start1" to="end1" depart="5963.715442" />
    <trip id="start2Toend2_51" type="connected" color="1,1,0" from="start2" to="end2" depart="6010.564331" />
    <trip id="start1Toend1_61" type="connected" color="1,1,0" from="start1" to="end1" depart="6025.646734" />
    <trip id="start2Toend1_62" type="connected" color="1,1,0" from="start2" to="end1" depart="6032.879939" />
    <trip id="start1Toend2_71" type="connected" color="1,1,0" from="start1" to="end2" depart="6058.075212" />
    <trip id="start2Toend1_63" type="connected" color="1,1,0" from="start2" to="end1" depart="6087.105424" />
    <trip id="start1Toend2_72" type="connected" color="1,1,0" from="start1" to="end2" depart="6121.930114" />
    <trip id="start1Toend2_73" type="connected" color="1,1,0" from="start1" to="end2" depart="6132.520450" />
    <trip id="start2Toend1_64" type="connected" color="1,1,0" from="start2" to="end1" depart="6203.902548" />
    <trip id="start2Toend2_52" type="connected" color="1,1,0" from="start2" to="end2" depart="6292.309680" />
    <trip id="start2Toend1_65" type="connected" color="1,1,0" from="start2" to="end1" depart="6314.294620" />
    <trip id="start1Toend2_74" type="connected" color="1,1,0" from="start1" to="end2" depart="6421.814730" />
    <trip id="start1Toend2_75" type="connected" color="1,1,0" from="start1" to="end2" depart="6459.894408" />
    <trip id="start1Toend2_76" type="connected" color="1,1,0" from="start1" to="end2" depart="6469.091085" />
    <trip id="start1Toend2_77" type="connected" color="1,1,0" from="start1" to="end2" depart="6502.298215" />
    <trip id="start1Toend2_78" type="connected" color="1,1,0" from="start1" to="end2" depart="6509.302291" />
    <trip id="start2Toend2_53" type="connected" color="1,1,0" from="start2" to="end2" depart="6532.401770" />