<?xml version="1.0" encoding="UTF-8"?>

<routes>

	<route id="route0" edges="start1 end1" />
    <route id="route1" edges="start1 end2" />
    <route id="route2" edges="start2 end1" />
    <route id="route3" edges="start2 end2" />


    <vType id="conventional" vClass="passenger" sigma="1" maxSpeed="40.0" color="red" accel="10.0"/>
    <vType id="connected" vClass="passenger" tau="1.3" maxSpeed="28.00" lcCooperative="0.0" color="1,1,0" lcStrategic="1.0" accel="3.0" decel="1.5" emergencyDecel="4.5" lcSpeedGain="0.3" sigma="0.0" lcKeepRight="0.3"/>
    <vType id="connected_pCatchupFollower" vClass="passenger" emergencyDecel="4.5" length="5" tau="0.1" maxSpeed="28.00" color="1,1,0" accel="10.3" decel="1.7" sigma="0.0" minGap="2.0"/>
    <vType id="connected_pCatchup" vClass="passenger" tau="0.1" emergencyDecel="4.5" maxSpeed="28.00" color="0,0.8,0.3" accel="10.3" decel="1.7" sigma="0.0" minGap="2.0"/>
    <vType id="connected_pFollower" vClass="passenger" tau="0.1" maxSpeed="28.00" color="1,1,0" accel="10.3" decel="1.7" sigma="0.0"  minGap="2.0" emergencyDecel="4.5"/>
    <vType id="connected_pLeader" vClass="passenger" length="5" tau="1.3" maxSpeed="28.00" lcCooperative="0.0" color="1,1,0" lcStrategic="1.0" accel="2.0" decel="1.5" emergencyDecel="4.5" lcSpeedGain="0.3" sigma="0.0" lcKeepRight="0.3"/>
    


	
    <trip id="start1Toend1_0" type="connected" color="1,1,0" from="start1" to="end1" depart="0.000000" />
    <trip id="start2Toend1_0" type="connected" color="1,1,0" from="start2" to="end1" depart="0.000000" />
    <trip id="start1Toend2_0" type="connected" color="1,1,0" from="start1" to="end2" depart="0.000000" />
    <trip id="start2Toend2_0" type="connected" color="1,1,0" from="start2" to="end2" depart="0.000000" />
    <trip id="start1Toend2_1" type="connected" color="1,1,0" from="start1" to="end2" depart="1.298650" />
    <trip id="start1Toend1_1" type="connected" color="1,1,0" from="start1" to="end1" depart="25.690760" />
    <trip id="start1Toend2_2" type="connected" color="1,1,0" from="start1" to="end2" depart="30.893714" />
    <trip id="start2Toend1_1" type="connected" color="1,1,0" from="start2" to="end1" depart="59.278128" />
    <trip id="start1Toend1_2" type="connected" color="1,1,0" from="start1" to="end1" depart="61.641197" />
    <trip id="start2Toend1_2" type="connected" color="1,1,0" from="start2" to="end1" depart="92.085407" />
    <trip id="start2Toend2_1" type="connected" color="1,1,0" from="start2" to="end2" depart="165.097383" />
    <trip id="start2Toend2_2" type="connected" color="1,1,0" from="start2" to="end2" depart="178.505570" />
    <trip id="start1Toend2_3" type="connected" color="1,1,0" from="start1" to="end2" depart="197.566111" />
    <trip id="start1Toend1_3" type="connected" color="1,1,0" from="start1" to="end1" depart="200.327511" />
    <trip id="start2Toend2_3" type="connected" color="1,1,0" from="start2" to="end2" depart="206.163121" />
    <trip id="start1Toend1_4" type="connected" color="1,1,0" from="start1" to="end1" depart="212.490403" />
    <trip id="start1Toend2_4" type="connected" color="1,1,0" from="start1" to="end2" depart="218.523940" />
    <trip id="start2Toend2_4" type="connected" color="1,1,0" from="start2" to="end2" depart="220.851247" />
    <trip id="start1Toend1_5" type="connected" color="1,1,0" from="start1" to="end1" depart="226.838755" />
    <trip id="start2Toend1_3" type="connected" color="1,1,0" from="start2" to="end1" depart="228.179524" />
    <trip id="start1Toend1_6" type="connected" color="1,1,0" from="start1" to="end1" depart="233.024659" />
    <trip id="start2Toend2_5" type="connected" color="1,1,0" from="start2" to="end2" depart="235.189740" />
    <trip id="start1Toend1_7" type="connected" color="1,1,0" from="start1" to="end1" depart="239.078829" />
    <trip id="start1Toend1_8" type="connected" color="1,1,0" from="start1" to="end1" depart="259.978755" />
    <trip id="start1Toend1_9" type="connected" color="1,1,0" from="start1" to="end1" depart="265.798082" />
    <trip id="start1Toend2_5" type="connected" color="1,1,0" from="start1" to="end2" depart="281.081010" />
    <trip id="start1Toend2_6" type="connected" color="1,1,0" from="start1" to="end2" depart="286.926879" />
    <trip id="start2Toend1_4" type="connected" color="1,1,0" from="start2" to="end1" depart="302.789103" />
    <trip id="start2Toend2_6" type="connected" color="1,1,0" from="start2" to="end2" depart="304.447293" />
    <trip id="start1Toend1_10" type="connected" color="1,1,0" from="start1" to="end1" depart="306.557959" />
    <trip id="start1Toend1_11" type="connected" color="1,1,0" from="start1" to="end1" depart="308.924548" />
    <trip id="start2Toend2_7" type="connected" color="1,1,0" from="start2" to="end2" depart="309.356399" />
    <trip id="start1Toend2_7" type="connected" color="1,1,0" from="start1" to="end2" depart="310.257537" />
    <trip id="start2Toend2_8" type="connected" color="1,1,0" from="start2" to="end2" depart="319.566139" />
    <trip id="start1Toend1_12" type="connected" color="1,1,0" from="start1" to="end1" depart="326.030497" />
    <trip id="start2Toend1_5" type="connected" color="1,1,0" from="start2" to="end1" depart="337.916010" />
    <trip id="start2Toend2_9" type="connected" color="1,1,0" from="start2" to="end2" depart="338.717560" />
    <trip id="start2Toend2_10" type="connected" color="1,1,0" from="start2" to="end2" depart="340.344012" />
    <trip id="start1Toend2_8" type="connected" color="1,1,0" from="start1" to="end2" depart="350.970343" />
    <trip id="start1Toend2_9" type="connected" color="1,1,0" from="start1" to="end2" depart="366.257313" />
    <trip id="start2Toend1_6" type="connected" color="1,1,0" from="start2" to="end1" depart="383.263887" />
    <trip id="start1Toend2_10" type="connected" color="1,1,0" from="start1" to="end2" depart="388.708135" />
    <trip id="start1Toend1_13" type="connected" color="1,1,0" from="start1" to="end1" depart="391.114378" />
    <trip id="start1Toend1_14" type="connected" color="1,1,0" from="start1" to="end1" depart="402.597512" />
    <trip id="start2Toend2_11" type="connected" color="1,1,0" from="start2" to="end2" depart="403.708936" />
    <trip id="start2Toend2_12" type="connected" color="1,1,0" from="start2" to="end2" depart="438.281546" />
    <trip id="start1Toend2_11" type="connected" color="1,1,0" from="start1" to="end2" depart="440.495968" />
    <trip id="start2Toend2_13" type="connected" color="1,1,0" from="start2" to="end2" depart="450.311768" />
    <trip id="start1Toend2_12" type="connected" color="1,1,0" from="start1" to="end2" depart="458.000072" />
    <trip id="start2Toend1_7" type="connected" color="1,1,0" from="start2" to="end1" depart="461.796865" />
    <trip id="start2Toend1_8" type="connected" color="1,1,0" from="start2" to="end1" depart="484.407491" />
    <trip id="start2Toend1_9" type="connected" color="1,1,0" from="start2" to="end1" depart="487.037902" />
    <trip id="start2Toend1_10" type="connected" color="1,1,0" from="start2" to="end1" depart="500.535986" />
    <trip id="start1Toend1_15" type="connected" color="1,1,0" from="start1" to="end1" depart="500.564614" />
    <trip id="start1Toend2_13" type="connected" color="1,1,0" from="start1" to="end2" depart="547.322963" />
    <trip id="start1Toend1_16" type="connected" color="1,1,0" from="start1" to="end1" depart="550.555319" />
    <trip id="start2Toend2_14" type="connected" color="1,1,0" from="start2" to="end2" depart="555.672603" />
    <trip id="start2Toend2_15" type="connected" color="1,1,0" from="start2" to="end2" depart="568.979582" />
    <trip id="start2Toend2_16" type="connected" color="1,1,0" from="start2" to="end2" depart="574.962424" />
    <trip id="start1Toend2_14" type="connected" color="1,1,0" from="start1" to="end2" depart="588.567390" />
    <trip id="start2Toend1_11" type="connected" color="1,1,0" from="start2" to="end1" depart="593.684909" />
    <trip id="start2Toend1_12" type="connected" color="1,1,0" from="start2" to="end1" depart="595.424104" />
    <trip id="start2Toend1_13" type="connected" color="1,1,0" from="start2" to="end1" depart="600.935963" />
    <trip id="start2Toend2_17" type="connected" color="1,1,0" from="start2" to="end2" depart="633.235557" />
    <trip id="start2Toend2_18" type="connected" color="1,1,0" from="start2" to="end2" depart="645.164753" />
    <trip id="start1Toend2_15" type="connected" color="1,1,0" from="start1" to="end2" depart="656.970264" />
    <trip id="start2Toend2_19" type="connected" color="1,1,0" from="start2" to="end2" depart="670.150483" />
    <trip id="start2Toend2_20" type="connected" color="1,1,0" from="start2" to="end2" depart="683.313722" />
    <trip id="start2Toend2_21" type="connected" color="1,1,0" from="start2" to="end2" depart="699.741864" />
    <trip id="start1Toend1_17" type="connected" color="1,1,0" from="start1" to="end1" depart="717.283706" />
    <trip id="start2Toend2_22" type="connected" color="1,1,0" from="start2" to="end2" depart="740.322016" />
    <trip id="start1Toend2_16" type="connected" color="1,1,0" from="start1" to="end2" depart="747.213799" />
    <trip id="start1Toend1_18" type="connected" color="1,1,0" from="start1" to="end1" depart="785.517096" />
    <trip id="start2Toend1_14" type="connected" color="1,1,0" from="start2" to="end1" depart="858.790918" />
    <trip id="start2Toend1_15" type="connected" color="1,1,0" from="start2" to="end1" depart="872.597271" />
    <trip id="start1Toend1_19" type="connected" color="1,1,0" from="start1" to="end1" depart="877.613245" />
    <trip id="start2Toend1_16" type="connected" color="1,1,0" from="start2" to="end1" depart="885.044345" />
    <trip id="start1Toend1_20" type="connected" color="1,1,0" from="start1" to="end1" depart="886.130418" />
    <trip id="start2Toend2_23" type="connected" color="1,1,0" from="start2" to="end2" depart="895.587258" />
    <trip id="start2Toend2_24" type="connected" color="1,1,0" from="start2" to="end2" depart="915.435299" />
    <trip id="start1Toend1_21" type="connected" color="1,1,0" from="start1" to="end1" depart="924.209446" />
    <trip id="start1Toend1_22" type="connected" color="1,1,0" from="start1" to="end1" depart="926.129926" />
    <trip id="start1Toend1_23" type="connected" color="1,1,0" from="start1" to="end1" depart="951.803889" />
    <trip id="start2Toend1_17" type="connected" color="1,1,0" from="start2" to="end1" depart="971.635572" />
    <trip id="start1Toend1_24" type="connected" color="1,1,0" from="start1" to="end1" depart="982.795405" />
    <trip id="start2Toend2_25" type="connected" color="1,1,0" from="start2" to="end2" depart="989.617196" />
    <trip id="start1Toend1_25" type="connected" color="1,1,0" from="start1" to="end1" depart="993.461382" />
    <trip id="start1Toend2_17" type="connected" color="1,1,0" from="start1" to="end2" depart="994.755508" />
    <trip id="start1Toend1_26" type="connected" color="1,1,0" from="start1" to="end1" depart="998.938399" />
    <trip id="start1Toend1_27" type="connected" color="1,1,0" from="start1" to="end1" depart="1005.176446" />
    <trip id="start1Toend2_18" type="connected" color="1,1,0" from="start1" to="end2" depart="1019.593466" />
    <trip id="start1Toend1_28" type="connected" color="1,1,0" from="start1" to="end1" depart="1037.338706" />
    <trip id="start2Toend2_26" type="connected" color="1,1,0" from="start2" to="end2" depart="1054.291534" />
    <trip id="start2Toend2_27" type="connected" color="1,1,0" from="start2" to="end2" depart="1059.584598" />
    <trip id="start2Toend2_28" type="connected" color="1,1,0" from="start2" to="end2" depart="1060.771971" />
    <trip id="start2Toend1_18" type="connected" color="1,1,0" from="start2" to="end1" depart="1067.219214" />
    <trip id="start2Toend2_29" type="connected" color="1,1,0" from="start2" to="end2" depart="1070.686884" />
    <trip id="start1Toend1_29" type="connected" color="1,1,0" from="start1" to="end1" depart="1075.943369" />
    <trip id="start1Toend1_30" type="connected" color="1,1,0" from="start1" to="end1" depart="1082.441515" />
    <trip id="start1Toend1_31" type="connected" color="1,1,0" from="start1" to="end1" depart="1083.268980" />
    <trip id="start2Toend1_19" type="connected" color="1,1,0" from="start2" to="end1" depart="1084.774947" />
    <trip id="start2Toend1_20" type="connected" color="1,1,0" from="start2" to="end1" depart="1095.495474" />
    <trip id="start1Toend2_19" type="connected" color="1,1,0" from="start1" to="end2" depart="1102.091292" />
    <trip id="start1Toend2_20" type="connected" color="1,1,0" from="start1" to="end2" depart="1105.240372" />
    <trip id="start1Toend2_21" type="connected" color="1,1,0" from="start1" to="end2" depart="1110.757854" />
    <trip id="start1Toend2_22" type="connected" color="1,1,0" from="start1" to="end2" depart="1175.784094" />
    <trip id="start2Toend1_21" type="connected" color="1,1,0" from="start2" to="end1" depart="1183.882150" />
    <trip id="start2Toend1_22" type="connected" color="1,1,0" from="start2" to="end1" depart="1189.033594" />
    <trip id="start1Toend2_23" type="connected" color="1,1,0" from="start1" to="end2" depart="1196.672035" />
    <trip id="start2Toend2_30" type="connected" color="1,1,0" from="start2" to="end2" depart="1202.656812" />
    <trip id="start1Toend2_24" type="connected" color="1,1,0" from="start1" to="end2" depart="1211.681070" />
    <trip id="start2Toend2_31" type="connected" color="1,1,0" from="start2" to="end2" depart="1213.020220" />
    <trip id="start1Toend2_25" type="connected" color="1,1,0" from="start1" to="end2" depart="1221.788451" />
    <trip id="start1Toend1_32" type="connected" color="1,1,0" from="start1" to="end1" depart="1222.468256" />
    <trip id="start1Toend2_26" type="connected" color="1,1,0" from="start1" to="end2" depart="1250.682959" />
    <trip id="start2Toend1_23" type="connected" color="1,1,0" from="start2" to="end1" depart="1256.781533" />
    <trip id="start1Toend2_27" type="connected" color="1,1,0" from="start1" to="end2" depart="1272.191993" />
    <trip id="start2Toend2_32" type="connected" color="1,1,0" from="start2" to="end2" depart="1276.528881" />
    <trip id="start1Toend2_28" type="connected" color="1,1,0" from="start1" to="end2" depart="1280.058896" />
    <trip id="start2Toend1_24" type="connected" color="1,1,0" from="start2" to="end1" depart="1290.715962" />
    <trip id="start2Toend1_25" type="connected" color="1,1,0" from="start2" to="end1" depart="1322.024535" />
    <trip id="start2Toend1_26" type="connected" color="1,1,0" from="start2" to="end1" depart="1323.113389" />
    <trip id="start1Toend2_29" type="connected" color="1,1,0" from="start1" to="end2" depart="1326.871285" />
    <trip id="start1Toend1_33" type="connected" color="1,1,0" from="start1" to="end1" depart="1337.340310" />
    <trip id="start2Toend2_33" type="connected" color="1,1,0" from="start2" to="end2" depart="1344.836646" />
    <trip id="start1Toend2_30" type="connected" color="1,1,0" from="start1" to="end2" depart="1356.753849" />
    <trip id="start1Toend1_34" type="connected" color="1,1,0" from="start1" to="end1" depart="1358.425227" />
    <trip id="start2Toend1_27" type="connected" color="1,1,0" from="start2" to="end1" depart="1374.877475" />
    <trip id="start1Toend1_35" type="connected" color="1,1,0" from="start1" to="end1" depart="1385.650285" />
    <trip id="start2Toend2_34" type="connected" color="1,1,0" from="start2" to="end2" depart="1406.731920" />
    <trip id="start1Toend1_36" type="connected" color="1,1,0" from="start1" to="end1" depart="1407.938311" />
    <trip id="start1Toend1_37" type="connected" color="1,1,0" from="start1" to="end1" depart="1410.682147" />
    <trip id="start1Toend2_31" type="connected" color="1,1,0" from="start1" to="end2" depart="1441.412105" />
    <trip id="start2Toend1_28" type="connected" color="1,1,0" from="start2" to="end1" depart="1444.584522" />
    <trip id="start1Toend1_38" type="connected" color="1,1,0" from="start1" to="end1" depart="1462.040864" />
    <trip id="start2Toend1_29" type="connected" color="1,1,0" from="start2" to="end1" depart="1465.336929" />
    <trip id="start2Toend2_35" type="connected" color="1,1,0" from="start2" to="end2" depart="1481.491581" />
    <trip id="start2Toend1_30" type="connected" color="1,1,0" from="start2" to="end1" depart="1486.735358" />
    <trip id="start2Toend2_36" type="connected" color="1,1,0" from="start2" to="end2" depart="1492.256419" />
    <trip id="start1Toend2_32" type="connected" color="1,1,0" from="start1" to="end2" depart="1495.057628" />
    <trip id="start2Toend2_37" type="connected" color="1,1,0" from="start2" to="end2" depart="1503.805898" />
    <trip id="start1Toend1_39" type="connected" color="1,1,0" from="start1" to="end1" depart="1521.065987" />
    <trip id="start2Toend2_38" type="connected" color="1,1,0" from="start2" to="end2" depart="1535.011858" />
    <trip id="start2Toend2_39" type="connected" color="1,1,0" from="start2" to="end2" depart="1537.111662" />
    <trip id="start2Toend2_40" type="connected" color="1,1,0" from="start2" to="end2" depart="1543.529706" />
    <trip id="start2Toend1_31" type="connected" color="1,1,0" from="start2" to="end1" depart="1559.301249" />
    <trip id="start1Toend1_40" type="connected" color="1,1,0" from="start1" to="end1" depart="1575.158354" />
    <trip id="start2Toend1_32" type="connected" color="1,1,0" from="start2" to="end1" depart="1576.041665" />
    <trip id="start2Toend2_41" type="connected" color="1,1,0" from="start2" to="end2" depart="1585.709763" />
    <trip id="start1Toend1_41" type="connected" color="1,1,0" from="start1" to="end1" depart="1591.838729" />
    <trip id="start2Toend2_42" type="connected" color="1,1,0" from="start2" to="end2" depart="1608.361639" />
    <trip id="start1Toend2_33" type="connected" color="1,1,0" from="start1" to="end2" depart="1638.760383" />
    <trip id="start2Toend2_43" type="connected" color="1,1,0" from="start2" to="end2" depart="1647.222484" />
    <trip id="start2Toend2_44" type="connected" color="1,1,0" from="start2" to="end2" depart="1658.429425" />
    <trip id="start1Toend2_34" type="connected" color="1,1,0" from="start1" to="end2" depart="1681.724262" />
    <trip id="start2Toend2_45" type="connected" color="1,1,0" from="start2" to="end2" depart="1684.397886" />
    <trip id="start1Toend1_42" type="connected" color="1,1,0" from="start1" to="end1" depart="1693.773653" />
    <trip id="start2Toend1_33" type="connected" color="1,1,0" from="start2" to="end1" depart="1704.618485" />
    <trip id="start2Toend1_34" type="connected" color="1,1,0" from="start2" to="end1" depart="1708.983698" />
    <trip id="start1Toend1_43" type="connected" color="1,1,0" from="start1" to="end1" depart="1711.565101" />
    <trip id="start2Toend1_35" type="connected" color="1,1,0" from="start2" to="end1" depart="1713.486558" />
    <trip id="start2Toend2_46" type="connected" color="1,1,0" from="start2" to="end2" depart="1747.590069" />
    <trip id="start2Toend1_36" type="connected" color="1,1,0" from="start2" to="end1" depart="1748.233855" />
    <trip id="start2Toend1_37" type="connected" color="1,1,0" from="start2" to="end1" depart="1751.605074" />
    <trip id="start2Toend2_47" type="connected" color="1,1,0" from="start2" to="end2" depart="1781.545625" />
    <trip id="start1Toend1_44" type="connected" color="1,1,0" from="start1" to="end1" depart="1785.135344" />
    <trip id="start1Toend1_45" type="connected" color="1,1,0" from="start1" to="end1" depart="1800.491078" />
    <trip id="start1Toend2_35" type="connected" color="1,1,0" from="start1" to="end2" depart="1812.694515" />
    <trip id="start1Toend2_36" type="connected" color="1,1,0" from="start1" to="end2" depart="1817.249499" />
    <trip id="start1Toend1_46" type="connected" color="1,1,0" from="start1" to="end1" depart="1818.204634" />
    <trip id="start1Toend2_37" type="connected" color="1,1,0" from="start1" to="end2" depart="1830.762856" />
    <trip id="start1Toend1_47" type="connected" color="1,1,0" from="start1" to="end1" depart="1838.927883" />
    <trip id="start1Toend2_38" type="connected" color="1,1,0" from="start1" to="end2" depart="1841.467874" />
    <trip id="start2Toend2_48" type="connected" color="1,1,0" from="start2" to="end2" depart="1842.978726" />
    <trip id="start2Toend1_38" type="connected" color="1,1,0" from="start2" to="end1" depart="1844.942674" />
    <trip id="start2Toend1_39" type="connected" color="1,1,0" from="start2" to="end1" depart="1852.995742" />
    <trip id="start1Toend1_48" type="connected" color="1,1,0" from="start1" to="end1" depart="1878.039814" />
    <trip id="start2Toend2_49" type="connected" color="1,1,0" from="start2" to="end2" depart="1879.147371" />
    <trip id="start2Toend1_40" type="connected" color="1,1,0" from="start2" to="end1" depart="1879.613792" />
    <trip id="start2Toend2_50" type="connected" color="1,1,0" from="start2" to="end2" depart="1881.513859" />
    <trip id="start2Toend2_51" type="connected" color="1,1,0" from="start2" to="end2" depart="1891.580378" />
    <trip id="start2Toend1_41" type="connected" color="1,1,0" from="start2" to="end1" depart="1892.418922" />
    <trip id="start2Toend2_52" type="connected" color="1,1,0" from="start2" to="end2" depart="1910.760304" />
    <trip id="start2Toend2_53" type="connected" color="1,1,0" from="start2" to="end2" depart="1914.806242" />
    <trip id="start2Toend2_54" type="connected" color="1,1,0" from="start2" to="end2" depart="1922.643431" />
    <trip id="start1Toend1_49" type="connected" color="1,1,0" from="start1" to="end1" depart="1925.897840" />
    <trip id="start2Toend1_42" type="connected" color="1,1,0" from="start2" to="end1" depart="1933.678944" />
    <trip id="start1Toend2_39" type="connected" color="1,1,0" from="start1" to="end2" depart="1965.328465" />
    <trip id="start2Toend2_55" type="connected" color="1,1,0" from="start2" to="end2" depart="1966.705312" />
    <trip id="start2Toend2_56" type="connected" color="1,1,0" from="start2" to="end2" depart="1967.622208" />
    <trip id="start1Toend2_40" type="connected" color="1,1,0" from="start1" to="end2" depart="1993.499763" />
    <trip id="start2Toend2_57" type="connected" color="1,1,0" from="start2" to="end2" depart="2021.410364" />
    <trip id="start1Toend1_50" type="connected" color="1,1,0" from="start1" to="end1" depart="2041.696830" />
    <trip id="start2Toend1_43" type="connected" color="1,1,0" from="start2" to="end1" depart="2046.559594" />
    <trip id="start2Toend1_44" type="connected" color="1,1,0" from="start2" to="end1" depart="2053.592087" />
    <trip id="start1Toend2_41" type="connected" color="1,1,0" from="start1" to="end2" depart="2055.147151" />
    <trip id="start2Toend2_58" type="connected" color="1,1,0" from="start2" to="end2" depart="2060.571869" />
    <trip id="start1Toend1_51" type="connected" color="1,1,0" from="start1" to="end1" depart="2060.595586" />
    <trip id="start2Toend1_45" type="connected" color="1,1,0" from="start2" to="end1" depart="2061.573691" />
    <trip id="start1Toend2_42" type="connected" color="1,1,0" from="start1" to="end2" depart="2069.209650" />
    <trip id="start2Toend1_46" type="connected" color="1,1,0" from="start2" to="end1" depart="2076.344017" />
    <trip id="start2Toend1_47" type="connected" color="1,1,0" from="start2" to="end1" depart="2083.634208" />
    <trip id="start2Toend2_59" type="connected" color="1,1,0" from="start2" to="end2" depart="2089.131064" />
    <trip id="start2Toend2_60" type="connected" color="1,1,0" from="start2" to="end2" depart="2091.299447" />
    <trip id="start1Toend1_52" type="connected" color="1,1,0" from="start1" to="end1" depart="2096.886158" />
    <trip id="start1Toend2_43" type="connected" color="1,1,0" from="start1" to="end2" depart="2103.262507" />
    <trip id="start1Toend1_53" type="connected" color="1,1,0" from="start1" to="end1" depart="2117.425973" />
    <trip id="start1Toend1_54" type="connected" color="1,1,0" from="start1" to="end1" depart="2122.812428" />
    <trip id="start1Toend2_44" type="connected" color="1,1,0" from="start1" to="end2" depart="2127.110659" />
    <trip id="start1Toend2_45" type="connected" color="1,1,0" from="start1" to="end2" depart="2153.737364" />
    <trip id="start2Toend1_48" type="connected" color="1,1,0" from="start2" to="end1" depart="2159.244338" />
    <trip id="start1Toend2_46" type="connected" color="1,1,0" from="start1" to="end2" depart="2162.825755" />
    <trip id="start2Toend2_61" type="connected" color="1,1,0" from="start2" to="end2" depart="2188.831124" />
    <trip id="start2Toend2_62" type="connected" color="1,1,0" from="start2" to="end2" depart="2193.334119" />
    <trip id="start1Toend2_47" type="connected" color="1,1,0" from="start1" to="end2" depart="2194.661956" />
    <trip id="start1Toend1_55" type="connected" color="1,1,0" from="start1" to="end1" depart="2202.399956" />
    <trip id="start2Toend2_63" type="connected" color="1,1,0" from="start2" to="end2" depart="2203.943927" />
    <trip id="start2Toend2_64" type="connected" color="1,1,0" from="start2" to="end2" depart="2217.501461" />
    <trip id="start2Toend2_65" type="connected" color="1,1,0" from="start2" to="end2" depart="2258.076599" />
    <trip id="start2Toend2_66" type="connected" color="1,1,0" from="start2" to="end2" depart="2269.042125" />
    <trip id="start1Toend1_56" type="connected" color="1,1,0" from="start1" to="end1" depart="2270.241352" />
    <trip id="start1Toend1_57" type="connected" color="1,1,0" from="start1" to="end1" depart="2274.307070" />
    <trip id="start1Toend2_48" type="connected" color="1,1,0" from="start1" to="end2" depart="2276.186633" />
    <trip id="start2Toend1_49" type="connected" color="1,1,0" from="start2" to="end1" depart="2285.379421" />
    <trip id="start1Toend1_58" type="connected" color="1,1,0" from="start1" to="end1" depart="2298.107831" />
    <trip id="start1Toend2_49" type="connected" color="1,1,0" from="start1" to="end2" depart="2301.248897" />
    <trip id="start1Toend2_50" type="connected" color="1,1,0" from="start1" to="end2" depart="2302.529572" />
    <trip id="start2Toend1_50" type="connected" color="1,1,0" from="start2" to="end1" depart="2335.368982" />
    <trip id="start2Toend1_51" type="connected" color="1,1,0" from="start2" to="end1" depart="2338.004201" />
    <trip id="start1Toend2_51" type="connected" color="1,1,0" from="start1" to="end2" depart="2341.833298" />
    <trip id="start1Toend2_52" type="connected" color="1,1,0" from="start1" to="end2" depart="2349.765988" />
    <trip id="start2Toend1_52" type="connected" color="1,1,0" from="start2" to="end1" depart="2369.511861" />
    <trip id="start1Toend2_53" type="connected" color="1,1,0" from="start1" to="end2" depart="2370.071720" />
    <trip id="start1Toend1_59" type="connected" color="1,1,0" from="start1" to="end1" depart="2377.390747" />
    <trip id="start1Toend2_54" type="connected" color="1,1,0" from="start1" to="end2" depart="2379.931837" />
    <trip id="start1Toend1_60" type="connected" color="1,1,0" from="start1" to="end1" depart="2386.769693" />
    <trip id="start2Toend1_53" type="connected" color="1,1,0" from="start2" to="end1" depart="2404.267039" />
    <trip id="start1Toend2_55" type="connected" color="1,1,0" from="start1" to="end2" depart="2426.960474" />
    <trip id="start1Toend2_56" type="connected" color="1,1,0" from="start1" to="end2" depart="2429.185255" />
    <trip id="start1Toend2_57" type="connected" color="1,1,0" from="start1" to="end2" depart="2429.599802" />
    <trip id="start2Toend1_54" type="connected" color="1,1,0" from="start2" to="end1" depart="2437.403994" />
    <trip id="start1Toend1_61" type="connected" color="1,1,0" from="start1" to="end1" depart="2439.880280" />
    <trip id="start2Toend2_67" type="connected" color="1,1,0" from="start2" to="end2" depart="2442.147807" />
    <trip id="start1Toend2_58" type="connected" color="1,1,0" from="start1" to="end2" depart="2450.085342" />
    <trip id="start1Toend2_59" type="connected" color="1,1,0" from="start1" to="end2" depart="2453.770517" />
    <trip id="start1Toend1_62" type="connected" color="1,1,0" from="start1" to="end1" depart="2454.662070" />
    <trip id="start1Toend2_60" type="connected" color="1,1,0" from="start1" to="end2" depart="2467.880021" />
    <trip id="start1Toend1_63" type="connected" color="1,1,0" from="start1" to="end1" depart="2479.148887" />
    <trip id="start2Toend1_55" type="connected" color="1,1,0" from="start2" to="end1" depart="2481.078579" />
    <trip id="start1Toend1_64" type="connected" color="1,1,0" from="start1" to="end1" depart="2489.158035" />
    <trip id="start2Toend2_68" type="connected" color="1,1,0" from="start2" to="end2" depart="2500.082852" />
    <trip id="start2Toend2_69" type="connected" color="1,1,0" from="start2" to="end2" depart="2503.880391" />
    <trip id="start1Toend2_61" type="connected" color="1,1,0" from="start1" to="end2" depart="2549.671723" />
    <trip id="start2Toend1_56" type="connected" color="1,1,0" from="start2" to="end1" depart="2553.329171" />
    <trip id="start1Toend1_65" type="connected" color="1,1,0" from="start1" to="end1" depart="2560.325963" />
    <trip id="start2Toend1_57" type="connected" color="1,1,0" from="start2" to="end1" depart="2571.930064" />
    <trip id="start2Toend1_58" type="connected" color="1,1,0" from="start2" to="end1" depart="2572.296192" />
    <trip id="start2Toend1_59" type="connected" color="1,1,0" from="start2" to="end1" depart="2592.746247" />
    <trip id="start1Toend2_62" type="connected" color="1,1,0" from="start1" to="end2" depart="2607.995604" />
    <trip id="start2Toend2_70" type="connected" color="1,1,0" from="start2" to="end2" depart="2621.319366" />
    <trip id="start2Toend2_71" type="connected" color="1,1,0" from="start2" to="end2" depart="2628.040450" />