<?xml version="1.0" encoding="UTF-8"?>

<routes>

	
    <vType id="conventional" vClass="passenger" sigma="1" maxSpeed="40.0" color="red" accel="10.0"/>
    <vType id="connected" vClass="passenger" tau="1.3" maxSpeed="28.00" lcCooperative="0.0" color="1,1,0" lcStrategic="1.0" accel="3.0" decel="1.5" emergencyDecel="4.5" lcSpeedGain="0.3" sigma="0.0" lcKeepRight="0.3"/>
    <vType id="connected_pCatchupFollower" vClass="passenger" emergencyDecel="4.5" length="5" tau="0.1" maxSpeed="28.00" color="1,1,0" accel="10.3" decel="1.7" sigma="0.0" minGap="2.0"/>
    <vType id="connected_pCatchup" vClass="passenger" tau="0.1" emergencyDecel="4.5" maxSpeed="28.00" color="0,0.8,0.3" accel="10.3" decel="1.7" sigma="0.0" minGap="2.0"/>
    <vType id="connected_pFollower" vClass="passenger" tau="0.1" maxSpeed="28.00" color="1,1,0" accel="10.3" decel="1.7" sigma="0.0"  minGap="2.0" emergencyDecel="4.5"/>
    <vType id="connected_pLeader" vClass="passenger" length="5" tau="1.3" maxSpeed="28.00" lcCooperative="0.0" color="1,1,0" lcStrategic="1.0" accel="2.0" decel="1.5" emergencyDecel="4.5" lcSpeedGain="0.3" sigma="0.0" lcKeepRight="0.3"/>
    


	
    <trip id="start1Toend20_0" type="connected" color="1,1,0" from="start1" to="end20" depart="0.000000" />
    <trip id="start13Toend2_0" type="connected" color="1,1,0" from="start13" to="end2" depart="0.000000" />
    <trip id="start2Toend20_0" type="connected" color="1,1,0" from="start2" to="end20" depart="0.000000" />
    <trip id="start4Toend21_0" type="connected" color="1,1,0" from="start4" to="end21" depart="0.000000" />
    <trip id="start3Toend19_0" type="connected" color="1,1,0" from="start3" to="end19" depart="0.000000" />
    <trip id="start5Toend20_0" type="connected" color="1,1,0" from="start5" to="end20" depart="0.000000" />
    <trip id="start23Toend18_0" type="connected" color="1,1,0" from="start23" to="end18" depart="0.000000" />
    <trip id="start24Toend7_0" type="connected" color="1,1,0" from="start24" to="end7" depart="0.000000" />
    <trip id="start20Toend3_0" type="connected" color="1,1,0" from="start20" to="end3" depart="0.000000" />
    <trip id="start23Toend16_0" type="connected" color="1,1,0" from="start23" to="end16" depart="0.000000" />
    <trip id="start9Toend20_0" type="connected" color="1,1,0" from="start9" to="end20" depart="0.000000" />
    <trip id="start4Toend21_1" type="connected" color="1,1,0" from="start4" to="end21" depart="0.144570" />
    <trip id="start23Toend16_1" type="connected" color="1,1,0" from="start23" to="end16" depart="0.572913" />
    <trip id="start3Toend19_1" type="connected" color="1,1,0" from="start3" to="end19" depart="0.624773" />
    <trip id="start3Toend19_2" type="connected" color="1,1,0" from="start3" to="end19" depart="0.687680" />
    <trip id="start24Toend7_1" type="connected" color="1,1,0" from="start24" to="end7" depart="1.674773" />
    <trip id="start1Toend20_1" type="connected" color="1,1,0" from="start1" to="end20" depart="1.834128" />
    <trip id="start23Toend18_1" type="connected" color="1,1,0" from="start23" to="end18" depart="1.946938" />
    <trip id="start13Toend2_1" type="connected" color="1,1,0" from="start13" to="end2" depart="1.972231" />
    <trip id="start4Toend21_2" type="connected" color="1,1,0" from="start4" to="end21" depart="2.948250" />
    <trip id="start1Toend20_2" type="connected" color="1,1,0" from="start1" to="end20" depart="3.046423" />
    <trip id="start9Toend20_1" type="connected" color="1,1,0" from="start9" to="end20" depart="3.220521" />
    <trip id="start23Toend16_2" type="connected" color="1,1,0" from="start23" to="end16" depart="3.431046" />
    <trip id="start5Toend20_1" type="connected" color="1,1,0" from="start5" to="end20" depart="3.835433" />
    <trip id="start5Toend20_2" type="connected" color="1,1,0" from="start5" to="end20" depart="3.951732" />
    <trip id="start2Toend20_1" type="connected" color="1,1,0" from="start2" to="end20" depart="4.950548" />
    <trip id="start20Toend3_1" type="connected" color="1,1,0" from="start20" to="end3" depart="5.206716" />
    <trip id="start1Toend20_3" type="connected" color="1,1,0" from="start1" to="end20" depart="5.244897" />
    <trip id="start1Toend20_4" type="connected" color="1,1,0" from="start1" to="end20" depart="5.540862" />
    <trip id="start3Toend19_3" type="connected" color="1,1,0" from="start3" to="end19" depart="5.770726" />
    <trip id="start23Toend16_3" type="connected" color="1,1,0" from="start23" to="end16" depart="5.853700" />
    <trip id="start2Toend20_2" type="connected" color="1,1,0" from="start2" to="end20" depart="6.024732" />
    <trip id="start13Toend2_2" type="connected" color="1,1,0" from="start13" to="end2" depart="6.294692" />
    <trip id="start9Toend20_2" type="connected" color="1,1,0" from="start9" to="end20" depart="6.597814" />
    <trip id="start2Toend20_3" type="connected" color="1,1,0" from="start2" to="end20" depart="7.640270" />
    <trip id="start23Toend16_4" type="connected" color="1,1,0" from="start23" to="end16" depart="8.288774" />
    <trip id="start9Toend20_3" type="connected" color="1,1,0" from="start9" to="end20" depart="8.476718" />
    <trip id="start24Toend7_2" type="connected" color="1,1,0" from="start24" to="end7" depart="8.837433" />
    <trip id="start9Toend20_4" type="connected" color="1,1,0" from="start9" to="end20" depart="8.863666" />
    <trip id="start13Toend2_3" type="connected" color="1,1,0" from="start13" to="end2" depart="9.883013" />
    <trip id="start5Toend20_3" type="connected" color="1,1,0" from="start5" to="end20" depart="11.502873" />
    <trip id="start3Toend19_4" type="connected" color="1,1,0" from="start3" to="end19" depart="11.750623" />
    <trip id="start4Toend21_3" type="connected" color="1,1,0" from="start4" to="end21" depart="11.981896" />
    <trip id="start13Toend2_4" type="connected" color="1,1,0" from="start13" to="end2" depart="13.046655" />
    <trip id="start24Toend7_3" type="connected" color="1,1,0" from="start24" to="end7" depart="13.281951" />
    <trip id="start23Toend16_5" type="connected" color="1,1,0" from="start23" to="end16" depart="13.368614" />
    <trip id="start23Toend18_2" type="connected" color="1,1,0" from="start23" to="end18" depart="13.780830" />
    <trip id="start20Toend3_2" type="connected" color="1,1,0" from="start20" to="end3" depart="15.496779" />
    <trip id="start4Toend21_4" type="connected" color="1,1,0" from="start4" to="end21" depart="16.489612" />
    <trip id="start2Toend20_4" type="connected" color="1,1,0" from="start2" to="end20" depart="16.677930" />
    <trip id="start24Toend7_4" type="connected" color="1,1,0" from="start24" to="end7" depart="16.956118" />
    <trip id="start20Toend3_3" type="connected" color="1,1,0" from="start20" to="end3" depart="18.217641" />
    <trip id="start9Toend20_5" type="connected" color="1,1,0" from="start9" to="end20" depart="18.909977" />
    <trip id="start23Toend16_6" type="connected" color="1,1,0" from="start23" to="end16" depart="19.261057" />
    <trip id="start5Toend20_4" type="connected" color="1,1,0" from="start5" to="end20" depart="20.032247" />
    <trip id="start23Toend16_7" type="connected" color="1,1,0" from="start23" to="end16" depart="20.170211" />
    <trip id="start23Toend16_8" type="connected" color="1,1,0" from="start23" to="end16" depart="20.725055" />
    <trip id="start24Toend7_5" type="connected" color="1,1,0" from="start24" to="end7" depart="20.974569" />
    <trip id="start4Toend21_5" type="connected" color="1,1,0" from="start4" to="end21" depart="21.090536" />
    <trip id="start4Toend21_6" type="connected" color="1,1,0" from="start4" to="end21" depart="21.216596" />
    <trip id="start9Toend20_6" type="connected" color="1,1,0" from="start9" to="end20" depart="21.404253" />
    <trip id="start24Toend7_6" type="connected" color="1,1,0" from="start24" to="end7" depart="21.448544" />
    <trip id="start2Toend20_5" type="connected" color="1,1,0" from="start2" to="end20" depart="22.907237" />
    <trip id="start20Toend3_4" type="connected" color="1,1,0" from="start20" to="end3" depart="23.301306" />
    <trip id="start20Toend3_5" type="connected" color="1,1,0" from="start20" to="end3" depart="23.648848" />
    <trip id="start23Toend16_9" type="connected" color="1,1,0" from="start23" to="end16" depart="24.014936" />
    <trip id="start9Toend20_7" type="connected" color="1,1,0" from="start9" to="end20" depart="24.297094" />
    <trip id="start23Toend18_3" type="connected" color="1,1,0" from="start23" to="end18" depart="24.770322" />
    <trip id="start3Toend19_5" type="connected" color="1,1,0" from="start3" to="end19" depart="24.991084" />
    <trip id="start23Toend18_4" type="connected" color="1,1,0" from="start23" to="end18" depart="25.240650" />
    <trip id="start13Toend2_5" type="connected" color="1,1,0" from="start13" to="end2" depart="25.470264" />
    <trip id="start9Toend20_8" type="connected" color="1,1,0" from="start9" to="end20" depart="25.689514" />
    <trip id="start23Toend16_10" type="connected" color="1,1,0" from="start23" to="end16" depart="25.956706" />
    <trip id="start23Toend16_11" type="connected" color="1,1,0" from="start23" to="end16" depart="26.452345" />
    <trip id="start2Toend20_6" type="connected" color="1,1,0" from="start2" to="end20" depart="26.562834" />
    <trip id="start20Toend3_6" type="connected" color="1,1,0" from="start20" to="end3" depart="26.685936" />
    <trip id="start23Toend18_5" type="connected" color="1,1,0" from="start23" to="end18" depart="27.191304" />
    <trip id="start2Toend20_7" type="connected" color="1,1,0" from="start2" to="end20" depart="27.457096" />
    <trip id="start13Toend2_6" type="connected" color="1,1,0" from="start13" to="end2" depart="27.619357" />
    <trip id="start23Toend18_6" type="connected" color="1,1,0" from="start23" to="end18" depart="27.851841" />
    <trip id="start3Toend19_6" type="connected" color="1,1,0" from="start3" to="end19" depart="27.946545" />
    <trip id="start23Toend16_12" type="connected" color="1,1,0" from="start23" to="end16" depart="28.001561" />
    <trip id="start20Toend3_7" type="connected" color="1,1,0" from="start20" to="end3" depart="28.075848" />
    <trip id="start24Toend7_7" type="connected" color="1,1,0" from="start24" to="end7" depart="28.137718" />
    <trip id="start2Toend20_8" type="connected" color="1,1,0" from="start2" to="end20" depart="28.205328" />
    <trip id="start23Toend18_7" type="connected" color="1,1,0" from="start23" to="end18" depart="28.490982" />
    <trip id="start20Toend3_8" type="connected" color="1,1,0" from="start20" to="end3" depart="29.094528" />
    <trip id="start2Toend20_9" type="connected" color="1,1,0" from="start2" to="end20" depart="29.372383" />
    <trip id="start5Toend20_5" type="connected" color="1,1,0" from="start5" to="end20" depart="31.899809" />
    <trip id="start1Toend20_5" type="connected" color="1,1,0" from="start1" to="end20" depart="32.888478" />
    <trip id="start20Toend3_9" type="connected" color="1,1,0" from="start20" to="end3" depart="34.029117" />
    <trip id="start2Toend20_10" type="connected" color="1,1,0" from="start2" to="end20" depart="35.849643" />
    <trip id="start20Toend3_10" type="connected" color="1,1,0" from="start20" to="end3" depart="36.117660" />
    <trip id="start20Toend3_11" type="connected" color="1,1,0" from="start20" to="end3" depart="37.691456" />
    <trip id="start3Toend19_7" type="connected" color="1,1,0" from="start3" to="end19" depart="38.092676" />
    <trip id="start4Toend21_7" type="connected" color="1,1,0" from="start4" to="end21" depart="39.106509" />
    <trip id="start9Toend20_9" type="connected" color="1,1,0" from="start9" to="end20" depart="39.114395" />
    <trip id="start20Toend3_12" type="connected" color="1,1,0" from="start20" to="end3" depart="39.199129" />
    <trip id="start24Toend7_8" type="connected" color="1,1,0" from="start24" to="end7" depart="39.394649" />
    <trip id="start23Toend16_13" type="connected" color="1,1,0" from="start23" to="end16" depart="39.980706" />
    <trip id="start3Toend19_8" type="connected" color="1,1,0" from="start3" to="end19" depart="40.044201" />
    <trip id="start20Toend3_13" type="connected" color="1,1,0" from="start20" to="end3" depart="40.954117" />
    <trip id="start20Toend3_14" type="connected" color="1,1,0" from="start20" to="end3" depart="42.723338" />
    <trip id="start2Toend20_11" type="connected" color="1,1,0" from="start2" to="end20" depart="43.157269" />
    <trip id="start24Toend7_9" type="connected" color="1,1,0" from="start24" to="end7" depart="43.294608" />
    <trip id="start3Toend19_9" type="connected" color="1,1,0" from="start3" to="end19" depart="44.733677" />
    <trip id="start24Toend7_10" type="connected" color="1,1,0" from="start24" to="end7" depart="45.146474" />
    <trip id="start23Toend18_8" type="connected" color="1,1,0" from="start23" to="end18" depart="45.668595" />
    <trip id="start24Toend7_11" type="connected" color="1,1,0" from="start24" to="end7" depart="45.732635" />
    <trip id="start4Toend21_8" type="connected" color="1,1,0" from="start4" to="end21" depart="46.297558" />
    <trip id="start2Toend20_12" type="connected" color="1,1,0" from="start2" to="end20" depart="46.420769" />
    <trip id="start4Toend21_9" type="connected" color="1,1,0" from="start4" to="end21" depart="46.555099" />
    <trip id="start20Toend3_15" type="connected" color="1,1,0" from="start20" to="end3" depart="46.763594" />
    <trip id="start13Toend2_7" type="connected" color="1,1,0" from="start13" to="end2" depart="46.812831" />
    <trip id="start23Toend18_9" type="connected" color="1,1,0" from="start23" to="end18" depart="48.060508" />
    <trip id="start3Toend19_10" type="connected" color="1,1,0" from="start3" to="end19" depart="48.186949" />
    <trip id="start13Toend2_8" type="connected" color="1,1,0" from="start13" to="end2" depart="48.668938" />
    <trip id="start2Toend20_13" type="connected" color="1,1,0" from="start2" to="end20" depart="49.315327" />
    <trip id="start3Toend19_11" type="connected" color="1,1,0" from="start3" to="end19" depart="50.692448" />
    <trip id="start5Toend20_6" type="connected" color="1,1,0" from="start5" to="end20" depart="50.790710" />
    <trip id="start3Toend19_12" type="connected" color="1,1,0" from="start3" to="end19" depart="50.827539" />
    <trip id="start23Toend18_10" type="connected" color="1,1,0" from="start23" to="end18" depart="50.940447" />
    <trip id="start4Toend21_10" type="connected" color="1,1,0" from="start4" to="end21" depart="51.366387" />
    <trip id="start4Toend21_11" type="connected" color="1,1,0" from="start4" to="end21" depart="51.496185" />
    <trip id="start24Toend7_12" type="connected" color="1,1,0" from="start24" to="end7" depart="51.638229" />
    <trip id="start2Toend20_14" type="connected" color="1,1,0" from="start2" to="end20" depart="51.683513" />
    <trip id="start1Toend20_6" type="connected" color="1,1,0" from="start1" to="end20" depart="53.482030" />
    <trip id="start13Toend2_9" type="connected" color="1,1,0" from="start13" to="end2" depart="53.524934" />
    <trip id="start5Toend20_7" type="connected" color="1,1,0" from="start5" to="end20" depart="53.680485" />
    <trip id="start3Toend19_13" type="connected" color="1,1,0" from="start3" to="end19" depart="53.969222" />
    <trip id="start3Toend19_14" type="connected" color="1,1,0" from="start3" to="end19" depart="54.066239" />
    <trip id="start1Toend20_7" type="connected" color="1,1,0" from="start1" to="end20" depart="54.129830" />
    <trip id="start13Toend2_10" type="connected" color="1,1,0" from="start13" to="end2" depart="54.392379" />
    <trip id="start13Toend2_11" type="connected" color="1,1,0" from="start13" to="end2" depart="56.338029" />
    <trip id="start3Toend19_15" type="connected" color="1,1,0" from="start3" to="end19" depart="56.342299" />
    <trip id="start23Toend16_14" type="connected" color="1,1,0" from="start23" to="end16" depart="57.036344" />
    <trip id="start5Toend20_8" type="connected" color="1,1,0" from="start5" to="end20" depart="57.223437" />
    <trip id="start24Toend7_13" type="connected" color="1,1,0" from="start24" to="end7" depart="57.350246" />
    <trip id="start24Toend7_14" type="connected" color="1,1,0" from="start24" to="end7" depart="57.410542" />
    <trip id="start5Toend20_9" type="connected" color="1,1,0" from="start5" to="end20" depart="57.665449" />
    <trip id="start9Toend20_10" type="connected" color="1,1,0" from="start9" to="end20" depart="57.739476" />
    <trip id="start13Toend2_12" type="connected" color="1,1,0" from="start13" to="end2" depart="58.843271" />
    <trip id="start4Toend21_12" type="connected" color="1,1,0" from="start4" to="end21" depart="58.991126" />
    <trip id="start23Toend18_11" type="connected" color="1,1,0" from="start23" to="end18" depart="59.373801" />
    <trip id="start20Toend3_16" type="connected" color="1,1,0" from="start20" to="end3" depart="59.439252" />
    <trip id="start4Toend21_13" type="connected" color="1,1,0" from="start4" to="end21" depart="59.440825" />
    <trip id="start4Toend21_14" type="connected" color="1,1,0" from="start4" to="end21" depart="59.446483" />
    <trip id="start2Toend20_15" type="connected" color="1,1,0" from="start2" to="end20" depart="59.792079" />
    <trip id="start4Toend21_15" type="connected" color="1,1,0" from="start4" to="end21" depart="59.917783" />
    <trip id="start9Toend20_11" type="connected" color="1,1,0" from="start9" to="end20" depart="61.633131" />
    <trip id="start3Toend19_16" type="connected" color="1,1,0" from="start3" to="end19" depart="63.845857" />
    <trip id="start23Toend16_15" type="connected" color="1,1,0" from="start23" to="end16" depart="64.606554" />
    <trip id="start24Toend7_15" type="connected" color="1,1,0" from="start24" to="end7" depart="65.127015" />
    <trip id="start3Toend19_17" type="connected" color="1,1,0" from="start3" to="end19" depart="65.308746" />
    <trip id="start24Toend7_16" type="connected" color="1,1,0" from="start24" to="end7" depart="65.953043" />
    <trip id="start23Toend18_12" type="connected" color="1,1,0" from="start23" to="end18" depart="66.100493" />
    <trip id="start4Toend21_16" type="connected" color="1,1,0" from="start4" to="end21" depart="66.694201" />
    <trip id="start2Toend20_16" type="connected" color="1,1,0" from="start2" to="end20" depart="66.895083" />
    <trip id="start5Toend20_10" type="connected" color="1,1,0" from="start5" to="end20" depart="67.502315" />
    <trip id="start23Toend18_13" type="connected" color="1,1,0" from="start23" to="end18" depart="68.781742" />
    <trip id="start23Toend18_14" type="connected" color="1,1,0" from="start23" to="end18" depart="69.920821" />
    <trip id="start3Toend19_18" type="connected" color="1,1,0" from="start3" to="end19" depart="69.974043" />
    <trip id="start23Toend16_16" type="connected" color="1,1,0" from="start23" to="end16" depart="70.236624" />
    <trip id="start24Toend7_17" type="connected" color="1,1,0" from="start24" to="end7" depart="71.067297" />
    <trip id="start23Toend18_15" type="connected" color="1,1,0" from="start23" to="end18" depart="71.104183" />
    <trip id="start5Toend20_11" type="connected" color="1,1,0" from="start5" to="end20" depart="71.932191" />
    <trip id="start3Toend19_19" type="connected" color="1,1,0" from="start3" to="end19" depart="71.945310" />
    <trip id="start23Toend18_16" type="connected" color="1,1,0" from="start23" to="end18" depart="71.957760" />
    <trip id="start23Toend16_17" type="connected" color="1,1,0" from="start23" to="end16" depart="72.648693" />
    <trip id="start2Toend20_17" type="connected" color="1,1,0" from="start2" to="end20" depart="72.700647" />
    <trip id="start2Toend20_18" type="connected" color="1,1,0" from="start2" to="end20" depart="72.979663" />
    <trip id="start13Toend2_13" type="connected" color="1,1,0" from="start13" to="end2" depart="73.721464" />
    <trip id="start9Toend20_12" type="connected" color="1,1,0" from="start9" to="end20" depart="73.752207" />
    <trip id="start3Toend19_20" type="connected" color="1,1,0" from="start3" to="end19" depart="74.527648" />
    <trip id="start24Toend7_18" type="connected" color="1,1,0" from="start24" to="end7" depart="74.621906" />
    <trip id="start9Toend20_13" type="connected" color="1,1,0" from="start9" to="end20" depart="76.489104" />
    <trip id="start3Toend19_21" type="connected" color="1,1,0" from="start3" to="end19" depart="77.956149" />
    <trip id="start20Toend3_17" type="connected" color="1,1,0" from="start20" to="end3" depart="78.454075" />
    <trip id="start23Toend18_17" type="connected" color="1,1,0" from="start23" to="end18" depart="79.235397" />
    <trip id="start5Toend20_12" type="connected" color="1,1,0" from="start5" to="end20" depart="79.652644" />
    <trip id="start5Toend20_13" type="connected" color="1,1,0" from="start5" to="end20" depart="79.970006" />
    <trip id="start24Toend7_19" type="connected" color="1,1,0" from="start24" to="end7" depart="80.042399" />
    <trip id="start23Toend16_18" type="connected" color="1,1,0" from="start23" to="end16" depart="80.855838" />
    <trip id="start23Toend16_19" type="connected" color="1,1,0" from="start23" to="end16" depart="81.726459" />
    <trip id="start20Toend3_18" type="connected" color="1,1,0" from="start20" to="end3" depart="81.839058" />
    <trip id="start23Toend18_18" type="connected" color="1,1,0" from="start23" to="end18" depart="82.636401" />
    <trip id="start5Toend20_14" type="connected" color="1,1,0" from="start5" to="end20" depart="83.495868" />
    <trip id="start23Toend18_19" type="connected" color="1,1,0" from="start23" to="end18" depart="84.144997" />
    <trip id="start4Toend21_17" type="connected" color="1,1,0" from="start4" to="end21" depart="84.494386" />
    <trip id="start1Toend20_8" type="connected" color="1,1,0" from="start1" to="end20" depart="85.885066" />
    <trip id="start20Toend3_19" type="connected" color="1,1,0" from="start20" to="end3" depart="86.392681" />
    <trip id="start20Toend3_20" type="connected" color="1,1,0" from="start20" to="end3" depart="86.873722" />
    <trip id="start23Toend18_20" type="connected" color="1,1,0" from="start23" to="end18" depart="88.600728" />
    <trip id="start9Toend20_14" type="connected" color="1,1,0" from="start9" to="end20" depart="89.187454" />
    <trip id="start23Toend16_20" type="connected" color="1,1,0" from="start23" to="end16" depart="89.374668" />
    <trip id="start23Toend18_21" type="connected" color="1,1,0" from="start23" to="end18" depart="89.685900" />
    <trip id="start23Toend16_21" type="connected" color="1,1,0" from="start23" to="end16" depart="90.117980" />
    <trip id="start5Toend20_15" type="connected" color="1,1,0" from="start5" to="end20" depart="91.025541" />
    <trip id="start2Toend20_19" type="connected" color="1,1,0" from="start2" to="end20" depart="91.419917" />
    <trip id="start3Toend19_22" type="connected" color="1,1,0" from="start3" to="end19" depart="91.692956" />
    <trip id="start23Toend16_22" type="connected" color="1,1,0" from="start23" to="end16" depart="91.943188" />
    <trip id="start4Toend21_18" type="connected" color="1,1,0" from="start4" to="end21" depart="92.387217" />
    <trip id="start24Toend7_20" type="connected" color="1,1,0" from="start24" to="end7" depart="92.432683" />
    <trip id="start9Toend20_15" type="connected" color="1,1,0" from="start9" to="end20" depart="92.538343" />
    <trip id="start3Toend19_23" type="connected" color="1,1,0" from="start3" to="end19" depart="92.709004" />
    <trip id="start23Toend18_22" type="connected" color="1,1,0" from="start23" to="end18" depart="93.217708" />
    <trip id="start3Toend19_24" type="connected" color="1,1,0" from="start3" to="end19" depart="93.280915" />
    <trip id="start20Toend3_21" type="connected" color="1,1,0" from="start20" to="end3" depart="93.486762" />
    <trip id="start9Toend20_16" type="connected" color="1,1,0" from="start9" to="end20" depart="93.529456" />
    <trip id="start23Toend18_23" type="connected" color="1,1,0" from="start23" to="end18" depart="94.421495" />
    <trip id="start9Toend20_17" type="connected" color="1,1,0" from="start9" to="end20" depart="95.263387" />
    <trip id="start5Toend20_16" type="connected" color="1,1,0" from="start5" to="end20" depart="95.550717" />
    <trip id="start9Toend20_18" type="connected" color="1,1,0" from="start9" to="end20" depart="95.557150" />
    <trip id="start23Toend16_23" type="connected" color="1,1,0" from="start23" to="end16" depart="95.782058" />
    <trip id="start5Toend20_17" type="connected" color="1,1,0" from="start5" to="end20" depart="95.794931" />
    <trip id="start5Toend20_18" type="connected" color="1,1,0" from="start5" to="end20" depart="96.075042" />
    <trip id="start4Toend21_19" type="connected" color="1,1,0" from="start4" to="end21" depart="96.179428" />
    <trip id="start20Toend3_22" type="connected" color="1,1,0" from="start20" to="end3" depart="96.568065" />
    <trip id="start1Toend20_9" type="connected" color="1,1,0" from="start1" to="end20" depart="96.941244" />
    <trip id="start1Toend20_10" type="connected" color="1,1,0" from="start1" to="end20" depart="97.132209" />
    <trip id="start2Toend20_20" type="connected" color="1,1,0" from="start2" to="end20" depart="98.432731" />
    <trip id="start9Toend20_19" type="connected" color="1,1,0" from="start9" to="end20" depart="99.289285" />
    <trip id="start2Toend20_21" type="connected" color="1,1,0" from="start2" to="end20" depart="100.073927" />
    <trip id="start20Toend3_23" type="connected" color="1,1,0" from="start20" to="end3" depart="100.331067" />
    <trip id="start9Toend20_20" type="connected" color="1,1,0" from="start9" to="end20" depart="101.267991" />
    <trip id="start5Toend20_19" type="connected" color="1,1,0" from="start5" to="end20" depart="101.354163" />
    <trip id="start23Toend18_24" type="connected" color="1,1,0" from="start23" to="end18" depart="101.695898" />
    <trip id="start5Toend20_20" type="connected" color="1,1,0" from="start5" to="end20" depart="103.463095" />
    <trip id="start23Toend16_24" type="connected" color="1,1,0" from="start23" to="end16" depart="104.020714" />
    <trip id="start20Toend3_24" type="connected" color="1,1,0" from="start20" to="end3" depart="104.826014" />
    <trip id="start2Toend20_22" type="connected" color="1,1,0" from="start2" to="end20" depart="105.639620" />
    <trip id="start9Toend20_21" type="connected" color="1,1,0" from="start9" to="end20" depart="106.142091" />
    <trip id="start2Toend20_23" type="connected" color="1,1,0" from="start2" to="end20" depart="106.444229" />
    <trip id="start5Toend20_21" type="connected" color="1,1,0" from="start5" to="end20" depart="106.592529" />
    <trip id="start13Toend2_14" type="connected" color="1,1,0" from="start13" to="end2" depart="108.080147" />
    <trip id="start24Toend7_21" type="connected" color="1,1,0" from="start24" to="end7" depart="108.452736" />
    <trip id="start2Toend20_24" type="connected" color="1,1,0" from="start2" to="end20" depart="108.453535" />
    <trip id="start20Toend3_25" type="connected" color="1,1,0" from="start20" to="end3" depart="109.365032" />
    <trip id="start5Toend20_22" type="connected" color="1,1,0" from="start5" to="end20" depart="109.415181" />
    <trip id="start3Toend19_25" type="connected" color="1,1,0" from="start3" to="end19" depart="109.478241" />
    <trip id="start9Toend20_22" type="connected" color="1,1,0" from="start9" to="end20" depart="109.493881" />
    <trip id="start9Toend20_23" type="connected" color="1,1,0" from="start9" to="end20" depart="110.803378" />
    <trip id="start3Toend19_26" type="connected" color="1,1,0" from="start3" to="end19" depart="111.049343" />
    <trip id="start5Toend20_23" type="connected" color="1,1,0" from="start5" to="end20" depart="111.205506" />
    <trip id="start2Toend20_25" type="connected" color="1,1,0" from="start2" to="end20" depart="111.387599" />
    <trip id="start1Toend20_11" type="connected" color="1,1,0" from="start1" to="end20" depart="111.490790" />
    <trip id="start13Toend2_15" type="connected" color="1,1,0" from="start13" to="end2" depart="111.609833" />
    <trip id="start1Toend20_12" type="connected" color="1,1,0" from="start1" to="end20" depart="111.929763" />
    <trip id="start23Toend16_25" type="connected" color="1,1,0" from="start23" to="end16" depart="112.531331" />
    <trip id="start9Toend20_24" type="connected" color="1,1,0" from="start9" to="end20" depart="112.789524" />
    <trip id="start20Toend3_26" type="connected" color="1,1,0" from="start20" to="end3" depart="113.019331" />
    <trip id="start20Toend3_27" type="connected" color="1,1,0" from="start20" to="end3" depart="113.151619" />
    <trip id="start23Toend18_25" type="connected" color="1,1,0" from="start23" to="end18" depart="113.785438" />
    <trip id="start23Toend18_26" type="connected" color="1,1,0" from="start23" to="end18" depart="113.964607" />
    <trip id="start4Toend21_20" type="connected" color="1,1,0" from="start4" to="end21" depart="114.110145" />
    <trip id="start24Toend7_22" type="connected" color="1,1,0" from="start24" to="end7" depart="114.327485" />
    <trip id="start13Toend2_16" type="connected" color="1,1,0" from="start13" to="end2" depart="114.655611" />
    <trip id="start13Toend2_17" type="connected" color="1,1,0" from="start13" to="end2" depart="114.702094" />
    <trip id="start23Toend16_26" type="connected" color="1,1,0" from="start23" to="end16" depart="114.790166" />
    <trip id="start9Toend20_25" type="connected" color="1,1,0" from="start9" to="end20" depart="114.833191" />
    <trip id="start5Toend20_24" type="connected" color="1,1,0" from="start5" to="end20" depart="115.172619" />
    <trip id="start9Toend20_26" type="connected" color="1,1,0" from="start9" to="end20" depart="116.515411" />